@<TRIPOS>MOLECULE
aminopyrine
32 33 1
SMALL
GASTEIGER

@<TRIPOS>DICT

@<TRIPOS>ATOM
      1 C          -0.6535   -1.2495    0.8772 C.ar      1 UNL1        0.0000
      2 C          -1.4968   -0.2013    0.5255 C.ar      1 UNL1        0.0000
      3 C          -0.9582    0.9537   -0.0209 C.ar      1 UNL1        0.0000
      4 C           0.4221    1.0448   -0.2408 C.ar      1 UNL1        0.0000
      5 C           1.2973    0.0009    0.1025 C.ar      1 UNL1        0.0000
      6 N           2.6942    0.1280   -0.1499 N.am      1 UNL1        0.0000
      7 C           0.7320   -1.1421    0.6788 C.ar      1 UNL1        0.0000
      8 C           3.3958    1.3509   -0.2636 C.2       1 UNL1        0.0000
      9 O           2.9440    2.4883   -0.2463 O.2       1 UNL1        0.0000
     10 C           4.8788    1.0185   -0.3659 C.2       1 UNL1        0.0000
     11 N           5.9182    1.9224   -0.6087 N.pl3     1 UNL1        0.0000
     12 C           5.7699    3.3723   -0.5250 C.3       1 UNL1        0.0000
     13 C           7.3060    1.4946   -0.7603 C.3       1 UNL1        0.0000
     14 C           4.8774   -0.3161   -0.2348 C.2       1 UNL1        0.0000
     15 N           3.6476   -0.9091   -0.0259 N.4       1 UNL1        1.0000
     16 C           3.3824   -2.2560   -0.5145 C.3       1 UNL1        0.0000
     17 H          -1.0482   -2.1108    1.2862 H         1 UNL1        0.0000
     18 H          -2.5154   -0.2823    0.6700 H         1 UNL1        0.0000
     19 H          -1.5736    1.7453   -0.2653 H         1 UNL1        0.0000
     20 H           0.8067    1.9024   -0.6668 H         1 UNL1        0.0000
     21 H           1.3457   -1.9214    0.9635 H         1 UNL1        0.0000
     22 H           4.7345    3.6191   -0.4154 H         1 UNL1        0.0000
     23 H           6.1511    3.8219   -1.4179 H         1 UNL1        0.0000
     24 H           6.3152    3.7385    0.3196 H         1 UNL1        0.0000
     25 H           7.3460    0.4268   -0.8154 H         1 UNL1        0.0000
     26 H           7.8765    1.8301    0.0805 H         1 UNL1        0.0000
     27 H           7.7124    1.9136   -1.6571 H         1 UNL1        0.0000
     28 H           5.7469   -0.8694   -0.2870 H         1 UNL1        0.0000
     29 H           2.3829   -2.5384   -0.2574 H         1 UNL1        0.0000
     30 H           4.0727   -2.9401   -0.0667 H         1 UNL1        0.0000
     31 H           3.4971   -2.2786   -1.5781 H         1 UNL1        0.0000
     32 H           3.6564   -1.0699    1.0420 H         1 UNL1        0.0000
@<TRIPOS>BOND
     1    1   17 1
     2    1    2 ar
     3    1    7 ar
     4    2    3 ar
     5    2   18 1
     6    3   19 1
     7    3    4 ar
     8    4    5 ar
     9    4   20 1
    10    5    6 1
    11    5    7 ar
    12    6    8 am
    13    6   15 1
    14    7   21 1
    15    8    9 2
    16    8   10 1
    17   10   14 2
    18   10   11 1
    19   11   12 1
    20   11   13 1
    21   12   22 1
    22   12   23 1
    23   12   24 1
    24   13   25 1
    25   13   26 1
    26   13   27 1
    27   14   15 1
    28   14   28 1
    29   15   16 1
    30   16   29 1
    31   16   30 1
    32   16   31 1
    33   15   32 1
@<TRIPOS>SUBSTRUCTURE
1 UNL1 1
@<TRIPOS>COMMENT
0.0000



