@<TRIPOS>MOLECULE
*****
 32 33 0 0 0
SMALL
GASTEIGER

@<TRIPOS>ATOM
      1 C          -1.2304   -0.5676   -0.2364 C.ar    1  UNL1       -0.0607
      2 C          -0.1163   -1.3769   -0.0431 C.ar    1  UNL1       -0.0563
      3 C           1.1468   -0.8118    0.2087 C.ar    1  UNL1       -0.0154
      4 C           1.2832    0.5953    0.2991 C.ar    1  UNL1        0.0392
      5 C           0.1716    1.4093   -0.0172 C.ar    1  UNL1        0.0431
      6 C          -1.0842    0.8156   -0.2375 C.ar    1  UNL1       -0.0491
      7 C           0.1919    2.8982   -0.1102 C.2     1  UNL1        0.1949
      8 O          -0.7893    3.5259    0.2861 O.2     1  UNL1       -0.2866
      9 C           1.3333    3.6661   -0.6806 C.ar    1  UNL1        0.0224
     10 C           1.5101    4.9881   -0.2463 C.ar    1  UNL1       -0.0499
     11 C           2.6172    5.7291   -0.6645 C.ar    1  UNL1       -0.0471
     12 C           3.5479    5.1498   -1.5235 C.ar    1  UNL1        0.0179
     13 C           3.3549    3.8559   -2.0065 C.ar    1  UNL1       -0.0471
     14 C           2.2317    3.1225   -1.6056 C.ar    1  UNL1       -0.0499
     15 BR          5.0912    6.1196   -2.0227 Br      1  UNL1       -0.0503
     16 N           2.5525    1.1045    0.6500 N.pl3   1  UNL1       -0.3572
     17 C           2.3216   -1.7406    0.4538 C.3     1  UNL1        0.0716
     18 C           3.4981   -1.5616   -0.4905 C.2     1  UNL1        0.3091
     19 O           3.6013   -0.7152   -1.3699 O.2     1  UNL1       -0.2507
     20 O           4.4943   -2.4492   -0.2488 O.3     1  UNL1       -0.4804
     21 H          -2.2101   -1.0111   -0.3957 H       1  UNL1        0.0618
     22 H          -0.2466   -2.4567   -0.0702 H       1  UNL1        0.0621
     23 H          -1.9601    1.4392   -0.4110 H       1  UNL1        0.0625
     24 H           0.7913    5.4405    0.4356 H       1  UNL1        0.0625
     25 H           2.7472    6.7466   -0.3041 H       1  UNL1        0.0629
     26 H           4.0754    3.4041   -2.6848 H       1  UNL1        0.0629
     27 H           2.0974    2.1185   -2.0040 H       1  UNL1        0.0625
     28 H           3.2393    0.9045   -0.0854 H       1  UNL1        0.1423
     29 H           2.5719    2.0935    0.8798 H       1  UNL1        0.1423
     30 H           1.9895   -2.7834    0.3543 H       1  UNL1        0.0427
     31 H           2.6709   -1.5992    1.4840 H       1  UNL1        0.0427
     32 H           4.3182   -3.0509    0.4994 H       1  UNL1        0.2951
@<TRIPOS>BOND
     1     1     2   ar
     2     2     3   ar
     3     3     4   ar
     4     4     5   ar
     5     5     6   ar
     6     1     6   ar
     7     5     7    1
     8     7     8    2
     9     7     9    1
    10     9    10   ar
    11    10    11   ar
    12    11    12   ar
    13    12    13   ar
    14    13    14   ar
    15     9    14   ar
    16    12    15    1
    17     4    16    1
    18     3    17    1
    19    17    18    1
    20    18    19    2
    21    18    20    1
    22     1    21    1
    23     2    22    1
    24     6    23    1
    25    10    24    1
    26    11    25    1
    27    13    26    1
    28    14    27    1
    29    16    28    1
    30    16    29    1
    31    17    30    1
    32    17    31    1
    33    20    32    1
