@<TRIPOS>MOLECULE
bromfenac
33 34 1
SMALL
GASTEIGER

@<TRIPOS>DICT

@<TRIPOS>ATOM
      1 C           1.2217   -1.6252    0.6879 C.ar      1 UNL1        0.0000
      2 H           1.2469   -2.6348    1.0062 H         1 UNL1        0.0000
      3 C           2.4120   -0.9175    0.5503 C.ar      1 UNL1        0.0000
      4 H           3.3210   -1.4102    0.7813 H         1 UNL1        0.0000
      5 C           2.4105    0.4075    0.1297 C.ar      1 UNL1        0.0000
      6 C           1.1666    1.0293   -0.1263 C.ar      1 UNL1        0.0000
      7 C          -0.0657    0.3202   -0.0055 C.ar      1 UNL1        0.0000
      8 C           0.0074   -1.0181    0.4159 C.ar      1 UNL1        0.0000
      9 H          -0.8725   -1.5926    0.5421 H         1 UNL1        0.0000
     10 C          -1.3886    0.9116   -0.2758 C.2       1 UNL1        0.0000
     11 O          -1.5165    2.0714   -0.6341 O.2       1 UNL1        0.0000
     12 C          -2.6260    0.1602   -0.1173 C.ar      1 UNL1        0.0000
     13 C          -3.5363    0.5169    0.8837 C.ar      1 UNL1        0.0000
     14 H          -3.3175    1.3253    1.5322 H         1 UNL1        0.0000
     15 C          -4.7271   -0.1834    1.0339 C.ar      1 UNL1        0.0000
     16 H          -5.4060    0.0956    1.7970 H         1 UNL1        0.0000
     17 C          -5.0297   -1.2470    0.1853 C.ar      1 UNL1        0.0000
     18 C          -4.1331   -1.6041   -0.8201 C.ar      1 UNL1        0.0000
     19 H          -4.3550   -2.4099   -1.4715 H         1 UNL1        0.0000
     20 C          -2.9423   -0.9037   -0.9713 C.ar      1 UNL1        0.0000
     21 H          -2.2691   -1.1797   -1.7403 H         1 UNL1        0.0000
     22 BR         -6.6523   -2.2033    0.3938 Br        1 UNL1        0.0000
     23 N           1.1784    2.3758   -0.4764 N.4       1 UNL1        1.0000
     24 H           0.3307    2.7436   -0.9330 H         1 UNL1        0.0000
     25 H           2.0749    2.7638   -0.8054 H         1 UNL1        0.0000
     26 C           3.7343    1.1796    0.0117 C.3       1 UNL1        0.0000
     27 H           4.0008    1.5518    0.9922 H         1 UNL1        0.0000
     28 H           3.6448    1.9698   -0.7201 H         1 UNL1        0.0000
     29 C           4.8258    0.2583   -0.5025 C.2       1 UNL1        0.0000
     30 O           4.8525   -0.1947   -1.6458 O.2       1 UNL1        0.0000
     31 O           5.8535   -0.0217    0.3532 O.3       1 UNL1        0.0000
     32 H           6.5559   -0.5346   -0.0511 H         1 UNL1        0.0000
     33 H           1.1011    2.8034    0.5123 H         1 UNL1        0.0000
@<TRIPOS>BOND
     1    1    3 ar
     2    1    2 1
     3    1    8 ar
     4    3    4 1
     5    3    5 ar
     6    5    6 ar
     7    5   26 1
     8    6   23 1
     9    6    7 ar
    10    7   10 1
    11    7    8 ar
    12    8    9 1
    13   10   11 2
    14   10   12 1
    15   12   20 ar
    16   12   13 ar
    17   13   14 1
    18   13   15 ar
    19   15   16 1
    20   15   17 ar
    21   17   18 ar
    22   17   22 1
    23   18   20 ar
    24   18   19 1
    25   20   21 1
    26   23   25 1
    27   23   24 1
    28   26   28 1
    29   26   29 1
    30   26   27 1
    31   29   30 2
    32   29   31 1
    33   31   32 1
    34   23   33 1
@<TRIPOS>SUBSTRUCTURE
1 UNL1 1
@<TRIPOS>COMMENT
0.0000



