@<TRIPOS>MOLECULE
*****
 30 31 0 0 0
SMALL
GASTEIGER

@<TRIPOS>ATOM
      1 C          -0.6304   -1.3996   -0.1376 C.ar    1  UNL1       -0.0614
      2 C          -1.3982   -0.2835   -0.4484 C.ar    1  UNL1       -0.0600
      3 C          -0.7967    0.9743   -0.5211 C.ar    1  UNL1       -0.0403
      4 C           0.5743    1.1411   -0.2760 C.ar    1  UNL1        0.0351
      5 C           1.3661   -0.0078   -0.0798 C.ar    1  UNL1       -0.0156
      6 C           0.7479   -1.2700    0.0194 C.ar    1  UNL1       -0.0563
      7 C           2.8735    0.0644    0.0060 C.3     1  UNL1        0.0716
      8 C           3.5590    0.4850   -1.2774 C.2     1  UNL1        0.3091
      9 O           4.6255    1.0850   -1.2946 O.2     1  UNL1       -0.2507
     10 O           2.9455    0.1100   -2.4252 O.3     1  UNL1       -0.4804
     11 N           1.1335    2.4272   -0.1209 N.pl3   1  UNL1       -0.3120
     12 C           0.5388    3.6377    0.3318 C.ar    1  UNL1        0.0684
     13 C          -0.4744    3.7156    1.3137 C.ar    1  UNL1        0.0635
     14 C          -1.1039    4.9330    1.6139 C.ar    1  UNL1       -0.0415
     15 C          -0.7026    6.1102    0.9924 C.ar    1  UNL1       -0.0589
     16 C           0.3434    6.0777    0.0747 C.ar    1  UNL1       -0.0415
     17 C           0.9496    4.8587   -0.2514 C.ar    1  UNL1        0.0635
     18 CL          2.2464    4.8944   -1.4011 Cl      1  UNL1       -0.0816
     19 CL         -0.9270    2.3808    2.3264 Cl      1  UNL1       -0.0816
     20 H          -1.1067   -2.3679   -0.0159 H       1  UNL1        0.0618
     21 H          -2.4697   -0.3771   -0.5921 H       1  UNL1        0.0618
     22 H          -1.4252    1.8362   -0.7331 H       1  UNL1        0.0636
     23 H           1.3327   -2.1594    0.2488 H       1  UNL1        0.0621
     24 H           3.2941   -0.9099    0.2832 H       1  UNL1        0.0427
     25 H           3.1501    0.7715    0.7960 H       1  UNL1        0.0427
     26 H           2.0948   -0.3541   -2.2989 H       1  UNL1        0.2951
     27 H           1.9976    2.5879   -0.6339 H       1  UNL1        0.1522
     28 H          -1.8985    4.9663    2.3574 H       1  UNL1        0.0633
     29 H          -1.1866    7.0512    1.2418 H       1  UNL1        0.0618
     30 H           0.6838    7.0031   -0.3810 H       1  UNL1        0.0633
@<TRIPOS>BOND
     1     1     2   ar
     2     2     3   ar
     3     3     4   ar
     4     4     5   ar
     5     5     6   ar
     6     1     6   ar
     7     5     7    1
     8     7     8    1
     9     8     9    2
    10     8    10    1
    11     4    11    1
    12    11    12    1
    13    12    13   ar
    14    13    14   ar
    15    14    15   ar
    16    15    16   ar
    17    16    17   ar
    18    12    17   ar
    19    17    18    1
    20    13    19    1
    21     1    20    1
    22     2    21    1
    23     3    22    1
    24     6    23    1
    25     7    24    1
    26     7    25    1
    27    10    26    1
    28    11    27    1
    29    14    28    1
    30    15    29    1
    31    16    30    1
