@<TRIPOS>MOLECULE
NONAME
30 31 1
SMALL
GASTEIGER

@<TRIPOS>DICT

@<TRIPOS>ATOM
      1 C           1.9208   -2.7128   -0.2922 C.ar      1 UNL1        0.0000
      2 H           2.4853   -3.6068   -0.3566 H         1 UNL1        0.0000
      3 C           0.5935   -2.7015   -0.7042 C.ar      1 UNL1        0.0000
      4 H           0.1515   -3.5853   -1.0854 H         1 UNL1        0.0000
      5 C          -0.1523   -1.5365   -0.6124 C.ar      1 UNL1        0.0000
      6 H          -1.1637   -1.5404   -0.9274 H         1 UNL1        0.0000
      7 C           0.4379   -0.3691   -0.1065 C.ar      1 UNL1        0.0000
      8 C           1.7879   -0.3591    0.2965 C.ar      1 UNL1        0.0000
      9 C           2.5087   -1.5536    0.2079 C.ar      1 UNL1        0.0000
     10 H           3.5175   -1.5976    0.5266 H         1 UNL1        0.0000
     11 C           2.4359    0.9067    0.8712 C.3       1 UNL1        0.0000
     12 H           2.3843    0.8546    1.9506 H         1 UNL1        0.0000
     13 H           1.9546    1.7895    0.4732 H         1 UNL1        0.0000
     14 C           3.8893    0.9595    0.4392 C.2       1 UNL1        0.0000
     15 O           4.8284    0.7156    1.1961 O.2       1 UNL1        0.0000
     16 O           4.1448    1.2651   -0.8674 O.3       1 UNL1        0.0000
     17 H           5.0829    1.2761   -1.0726 H         1 UNL1        0.0000
     18 N          -0.3395    0.8081    0.0018 N.pl3     1 UNL1        0.0000
     19 H           0.1533    1.7101   -0.0919 H         1 UNL1        0.0000
     20 C          -1.7626    0.8208    0.0129 C.ar      1 UNL1        0.0000
     21 C          -2.4538    1.4752   -1.0164 C.ar      1 UNL1        0.0000
     22 C          -3.8495    1.4857   -1.0158 C.ar      1 UNL1        0.0000
     23 H          -4.3747    1.9764   -1.7937 H         1 UNL1        0.0000
     24 C          -4.5504    0.8504    0.0049 C.ar      1 UNL1        0.0000
     25 H          -5.6095    0.8588    0.0011 H         1 UNL1        0.0000
     26 C          -3.8692    0.2065    1.0327 C.ar      1 UNL1        0.0000
     27 H          -4.4103   -0.2712    1.8074 H         1 UNL1        0.0000
     28 C          -2.4745    0.1934    1.0491 C.ar      1 UNL1        0.0000
     29 CL         -1.6663   -0.5838    2.3744 Cl        1 UNL1        0.0000
     30 CL         -1.6004    2.2652   -2.3030 Cl        1 UNL1        0.0000
@<TRIPOS>BOND
     1    1    2 1
     2    1    3 ar
     3    1    9 ar
     4    3    4 1
     5    3    5 ar
     6    5    6 1
     7    5    7 ar
     8    7   18 1
     9    7    8 ar
    10    8    9 ar
    11    8   11 1
    12    9   10 1
    13   11   12 1
    14   11   13 1
    15   11   14 1
    16   14   15 2
    17   14   16 1
    18   16   17 1
    19   18   19 1
    20   18   20 1
    21   20   21 ar
    22   20   28 ar
    23   21   30 1
    24   21   22 ar
    25   22   23 1
    26   22   24 ar
    27   24   25 1
    28   24   26 ar
    29   26   28 ar
    30   26   27 1
    31   28   29 1
@<TRIPOS>SUBSTRUCTURE
1 UNL1 1
@<TRIPOS>COMMENT
0.0000



