@<TRIPOS>MOLECULE
estradiol
44 47 1
SMALL
GASTEIGER

@<TRIPOS>DICT

@<TRIPOS>ATOM
      1 O           1.4578    0.1016    2.3020 O.3       1 UNL1        0.0000
      2 O           6.6557    9.0625    0.3472 O.3       1 UNL1        0.0000
      3 C           3.3526    1.7793    2.3934 C.3       1 UNL1        0.0000
      4 C           4.7183    1.6753    1.6446 C.3       1 UNL1        0.0000
      5 C           5.3266    3.0216    1.3510 C.3       1 UNL1        0.0000
      6 C           5.5050    3.9196    2.6062 C.3       1 UNL1        0.0000
      7 C           2.8293    0.3466    2.0572 C.3       1 UNL1        0.0000
      8 C           3.7914    2.2744    3.7927 C.3       1 UNL1        0.0000
      9 C           4.5232    0.7817    0.4155 C.3       1 UNL1        0.0000
     10 C           4.3629    3.7444    3.6627 C.3       1 UNL1        0.0000
     11 C           3.0866    0.3202    0.5269 C.3       1 UNL1        0.0000
     12 C           6.7152    2.9151    0.7079 C.3       1 UNL1        0.0000
     13 C           2.2556    2.7945    1.9355 C.3       1 UNL1        0.0000
     14 C           5.8397    5.3237    2.0504 C.ar      1 UNL1        0.0000
     15 C           6.9698    4.2248   -0.0089 C.3       1 UNL1        0.0000
     16 C           6.5554    5.4245    0.8207 C.ar      1 UNL1        0.0000
     17 C           5.4907    6.5069    2.7038 C.ar      1 UNL1        0.0000
     18 C           6.8286    6.6795    0.2498 C.ar      1 UNL1        0.0000
     19 C           5.7845    7.7583    2.1228 C.ar      1 UNL1        0.0000
     20 C           6.4235    7.8251    0.8897 C.ar      1 UNL1        0.0000
     21 H           1.2921    0.1171    3.2576 H         1 UNL1        0.0000
     22 H           7.0845    9.1373   -0.4826 H         1 UNL1        0.0000
     23 H           5.4489    1.2148    2.2764 H         1 UNL1        0.0000
     24 H           4.6192    3.4639    0.6810 H         1 UNL1        0.0000
     25 H           6.3172    3.6379    3.2433 H         1 UNL1        0.0000
     26 H           3.3062   -0.3933    2.6655 H         1 UNL1        0.0000
     27 H           4.5501    1.6273    4.1806 H         1 UNL1        0.0000
     28 H           2.9528    2.2698    4.4574 H         1 UNL1        0.0000
     29 H           5.1939   -0.0517    0.4401 H         1 UNL1        0.0000
     30 H           4.7227    1.2931   -0.5029 H         1 UNL1        0.0000
     31 H           3.5557    4.3913    3.3891 H         1 UNL1        0.0000
     32 H           4.7951    3.9821    4.6122 H         1 UNL1        0.0000
     33 H           2.4270    0.9890    0.0145 H         1 UNL1        0.0000
     34 H           2.9169   -0.6404    0.0872 H         1 UNL1        0.0000
     35 H           6.7365    2.1038    0.0106 H         1 UNL1        0.0000
     36 H           7.4665    2.7308    1.4471 H         1 UNL1        0.0000
     37 H           1.8970    2.5189    0.9658 H         1 UNL1        0.0000
     38 H           2.6748    3.7781    1.8945 H         1 UNL1        0.0000
     39 H           1.4442    2.7815    2.6329 H         1 UNL1        0.0000
     40 H           6.4142    4.2304   -0.9234 H         1 UNL1        0.0000
     41 H           8.0216    4.2998   -0.1905 H         1 UNL1        0.0000
     42 H           5.0144    6.4658    3.6184 H         1 UNL1        0.0000
     43 H           7.3327    6.7399   -0.6486 H         1 UNL1        0.0000
     44 H           5.5242    8.6274    2.6147 H         1 UNL1        0.0000
@<TRIPOS>BOND
     1    1    7 1
     2    1   21 1
     3    2   20 1
     4    2   22 1
     5    3    7 1
     6    3    4 1
     7    3    8 1
     8    3   13 1
     9    4   23 1
    10    4    5 1
    11    4    9 1
    12    5   12 1
    13    5   24 1
    14    5    6 1
    15    6   10 1
    16    6   14 1
    17    6   25 1
    18    7   26 1
    19    7   11 1
    20    8   27 1
    21    8   10 1
    22    8   28 1
    23    9   29 1
    24    9   30 1
    25    9   11 1
    26   10   32 1
    27   10   31 1
    28   11   33 1
    29   11   34 1
    30   12   15 1
    31   12   35 1
    32   12   36 1
    33   13   38 1
    34   13   39 1
    35   13   37 1
    36   14   16 ar
    37   14   17 ar
    38   15   16 1
    39   15   40 1
    40   15   41 1
    41   16   18 ar
    42   17   42 1
    43   17   19 ar
    44   18   20 ar
    45   18   43 1
    46   19   20 ar
    47   19   44 1
@<TRIPOS>SUBSTRUCTURE
1 UNL1 1
@<TRIPOS>COMMENT
0.0000



