@<TRIPOS>MOLECULE
*****
 47 50 0 0 0
SMALL
GASTEIGER

@<TRIPOS>ATOM
      1 C           2.2899    0.7039    2.2806 C.3     1  UNL1       -0.0029
      2 C           3.0566    0.5203    1.0313 C.ar    1  UNL1        0.1469
      3 C           3.4834    1.3063   -0.0230 C.ar    1  UNL1        0.1061
      4 C           4.3581    0.4405   -0.7814 C.ar    1  UNL1        0.1298
      5 N           4.2622   -0.8027   -0.2788 N.ar    1  UNL1       -0.0771
      6 O           3.5187   -0.7360    0.8586 O.2     1  UNL1       -0.3586
      7 C           5.2386    0.6443   -1.9459 C.ar    1  UNL1        0.0578
      8 C           4.8713    1.4931   -2.9947 C.ar    1  UNL1        0.1341
      9 C           5.6798    1.6752   -4.1291 C.ar    1  UNL1       -0.0257
     10 C           6.8760    0.9808   -4.2680 C.ar    1  UNL1       -0.0576
     11 C           7.2610    0.1035   -3.2614 C.ar    1  UNL1       -0.0426
     12 C           6.4635   -0.0606   -2.1101 C.ar    1  UNL1        0.0530
     13 CL          7.1177   -1.1746   -0.9488 Cl      1  UNL1       -0.0828
     14 F           3.6894    2.1262   -2.9773 F       1  UNL1       -0.2048
     15 C           3.1421    2.7204   -0.1949 C.2     1  UNL1        0.2502
     16 O           3.9233    3.5385   -0.6655 O.2     1  UNL1       -0.2700
     17 N           1.8529    3.0754    0.1921 N.am    1  UNL1       -0.2976
     18 CA          1.3296    4.4759    0.0887 C.3     1  UNL1        0.1279
     19 C           1.5876    5.1883   -1.2537 C.3     1  UNL1        0.1005
     20 N           0.1895    5.6415   -1.1630 N.am    1  UNL1       -0.2708
     21 C          -0.2020    4.5754   -0.4562 C.2     1  UNL1        0.2402
     22 O          -1.2745    4.0521   -0.3144 O.2     1  UNL1       -0.2734
     23 CA         -0.2897    6.7046   -2.0649 C.3     1  UNL1        0.1379
     24 C           0.9929    7.1092   -2.8449 C.3     1  UNL1        0.0417
     25 S           2.3583    6.7815   -1.5572 S.3     1  UNL1       -0.1273
     26 C           1.1765    6.1417   -4.0400 C.3     1  UNL1       -0.0484
     27 C           1.1074    8.5318   -3.3882 C.3     1  UNL1       -0.0484
     28 C          -0.9040    7.9002   -1.3104 C.2     1  UNL1        0.3269
     29 O          -1.4178    8.8644   -1.8647 O.2     1  UNL1       -0.2489
     30 OXT        -0.8276    7.8282    0.0389 O.3     1  UNL1       -0.4793
     31 H           1.9088    1.7183    2.4080 H       1  UNL1        0.0309
     32 H           2.9256    0.4849    3.1449 H       1  UNL1        0.0309
     33 H           1.4406    0.0141    2.3007 H       1  UNL1        0.0309
     34 H           5.3548    2.3536   -4.9140 H       1  UNL1        0.0646
     35 H           7.4979    1.1109   -5.1494 H       1  UNL1        0.0619
     36 H           8.1873   -0.4597   -3.3734 H       1  UNL1        0.0632
     37 H           1.2038    2.3345    0.4298 H       1  UNL1        0.1499
     38 HA          1.4804    5.0440    1.0135 H       1  UNL1        0.0622
     39 H           1.7609    4.4670   -2.0581 H       1  UNL1        0.0640
     40 HA         -1.0825    6.2913   -2.6969 H       1  UNL1        0.0631
     41 H           0.8923    5.1101   -3.8067 H       1  UNL1        0.0244
     42 H           2.2107    6.1333   -4.3999 H       1  UNL1        0.0244
     43 H           0.5276    6.4333   -4.8730 H       1  UNL1        0.0244
     44 H           1.0842    9.2979   -2.6087 H       1  UNL1        0.0244
     45 H           0.2931    8.7379   -4.0939 H       1  UNL1        0.0244
     46 H           2.0451    8.6589   -3.9447 H       1  UNL1        0.0244
     47 HXT        -0.3783    7.0116    0.3206 H       1  UNL1        0.2951
@<TRIPOS>BOND
     1     1     2    1
     2     2     3   ar
     3     3     4   ar
     4     4     5   ar
     5     5     6   ar
     6     2     6   ar
     7     4     7    1
     8     7     8   ar
     9     8     9   ar
    10     9    10   ar
    11    10    11   ar
    12    11    12   ar
    13     7    12   ar
    14    12    13    1
    15     8    14    1
    16     3    15    1
    17    15    16    2
    18    15    17   am
    19    17    18    1
    20    18    19    1
    21    19    20    1
    22    20    21   am
    23    18    21    1
    24    21    22    2
    25    20    23    1
    26    23    24    1
    27    24    25    1
    28    19    25    1
    29    24    26    1
    30    24    27    1
    31    23    28    1
    32    28    29    2
    33    28    30    1
    34     1    31    1
    35     1    32    1
    36     1    33    1
    37     9    34    1
    38    10    35    1
    39    11    36    1
    40    17    37    1
    41    18    38    1
    42    19    39    1
    43    23    40    1
    44    26    41    1
    45    26    42    1
    46    26    43    1
    47    27    44    1
    48    27    45    1
    49    27    46    1
    50    30    47    1
