@<TRIPOS>MOLECULE
lumiracoxib
33 34 1
SMALL
GASTEIGER

@<TRIPOS>DICT

@<TRIPOS>ATOM
      1 C          -3.9106   -2.0173   -0.1952 C.3       1 UNL1        0.0000
      2 H          -4.7286   -1.2982   -0.2682 H         1 UNL1        0.0000
      3 H          -3.9722   -2.5698    0.7426 H         1 UNL1        0.0000
      4 H          -3.9471   -2.7036   -1.0433 H         1 UNL1        0.0000
      5 C          -2.5910   -1.2736   -0.2191 C.ar      1 UNL1        0.0000
      6 C          -2.5116    0.0346    0.2612 C.ar      1 UNL1        0.0000
      7 H          -3.3929    0.4874    0.6350 H         1 UNL1        0.0000
      8 C          -1.3028    0.7392    0.2603 C.ar      1 UNL1        0.0000
      9 C          -0.1510    0.0759   -0.2024 C.ar      1 UNL1        0.0000
     10 C          -0.2267   -1.2319   -0.6985 C.ar      1 UNL1        0.0000
     11 H           0.6377   -1.7175   -1.0726 H         1 UNL1        0.0000
     12 C          -1.4428   -1.8996   -0.7001 C.ar      1 UNL1        0.0000
     13 H          -1.4951   -2.8928   -1.0666 H         1 UNL1        0.0000
     14 N           1.1009    0.7412   -0.1689 N.pl3     1 UNL1        0.0000
     15 H           1.0886    1.7695   -0.2682 H         1 UNL1        0.0000
     16 C           2.3734    0.1052   -0.0827 C.ar      1 UNL1        0.0000
     17 C           2.6261   -0.9305    0.8226 C.ar      1 UNL1        0.0000
     18 C           3.8674   -1.5527    0.8986 C.ar      1 UNL1        0.0000
     19 H           4.0346   -2.3401    1.5871 H         1 UNL1        0.0000
     20 C           4.8928   -1.1186    0.0625 C.ar      1 UNL1        0.0000
     21 H           5.8452   -1.5808    0.1149 H         1 UNL1        0.0000
     22 C           4.6742   -0.0727   -0.8351 C.ar      1 UNL1        0.0000
     23 H           5.4633    0.2564   -1.4617 H         1 UNL1        0.0000
     24 C           3.4207    0.5442   -0.9123 C.ar      1 UNL1        0.0000
     25 CL          3.1800    1.8401   -2.0378 Cl        1 UNL1        0.0000
     26 F           1.6658   -1.3463    1.6775 F         1 UNL1        0.0000
     27 C          -1.1953    2.1767    0.7911 C.3       1 UNL1        0.0000
     28 H          -0.5136    2.7371    0.1649 H         1 UNL1        0.0000
     29 H          -0.8755    2.1330    1.8254 H         1 UNL1        0.0000
     30 C          -2.5444    2.8700    0.7121 C.2       1 UNL1        0.0000
     31 O          -3.2704    3.0450    1.6887 O.2       1 UNL1        0.0000
     32 O          -2.9681    3.2846   -0.5169 O.3       1 UNL1        0.0000
     33 H          -3.8309    3.7058   -0.4948 H         1 UNL1        0.0000
@<TRIPOS>BOND
     1    1    2 1
     2    1    4 1
     3    1    5 1
     4    1    3 1
     5    5    6 ar
     6    5   12 ar
     7    6    7 1
     8    6    8 ar
     9    8    9 ar
    10    8   27 1
    11    9   14 1
    12    9   10 ar
    13   10   11 1
    14   10   12 ar
    15   12   13 1
    16   14   15 1
    17   14   16 1
    18   16   17 ar
    19   16   24 ar
    20   17   26 1
    21   17   18 ar
    22   18   19 1
    23   18   20 ar
    24   20   21 1
    25   20   22 ar
    26   22   23 1
    27   22   24 ar
    28   24   25 1
    29   27   30 1
    30   27   28 1
    31   27   29 1
    32   30   32 1
    33   30   31 2
    34   32   33 1
@<TRIPOS>SUBSTRUCTURE
1 UNL1 1
@<TRIPOS>COMMENT
0.0000



