@<TRIPOS>MOLECULE
*****
 33 34 0 0 0
SMALL
GASTEIGER

@<TRIPOS>ATOM
      1 C           0.9738   -0.0289    0.0785 C.3     1  UNL1       -0.0397
      2 C           2.4700    0.0460   -0.0038 C.ar    1  UNL1       -0.0501
      3 C           3.1235    1.2607   -0.2317 C.ar    1  UNL1       -0.0534
      4 C           4.5252    1.3214   -0.3874 C.ar    1  UNL1       -0.0154
      5 C           5.2906    0.1379   -0.3283 C.ar    1  UNL1        0.0352
      6 C           4.6214   -1.0672   -0.0590 C.ar    1  UNL1       -0.0400
      7 C           3.2335   -1.1150    0.1050 C.ar    1  UNL1       -0.0571
      8 N           6.6977    0.1805   -0.5244 N.pl3   1  UNL1       -0.3109
      9 C           7.6270   -0.8324   -0.1713 C.ar    1  UNL1        0.0855
     10 C           7.6502   -1.3636    1.1234 C.ar    1  UNL1        0.1458
     11 C           8.4789   -2.4297    1.4714 C.ar    1  UNL1       -0.0245
     12 C           9.3069   -3.0036    0.5156 C.ar    1  UNL1       -0.0576
     13 C           9.3266   -2.4836   -0.7817 C.ar    1  UNL1       -0.0414
     14 C           8.4999   -1.4039   -1.1161 C.ar    1  UNL1        0.0649
     15 CL          8.5591   -0.8051   -2.7381 Cl      1  UNL1       -0.0815
     16 F           6.8710   -0.8393    2.0840 F       1  UNL1       -0.2035
     17 C           5.1710    2.6796   -0.5698 C.3     1  UNL1        0.0716
     18 C           5.8669    2.9005   -1.8902 C.2     1  UNL1        0.3091
     19 O           6.8126    3.6655   -2.0272 O.2     1  UNL1       -0.2507
     20 O           5.3448    2.2391   -2.9464 O.3     1  UNL1       -0.4804
     21 H           0.5251    0.9669    0.1592 H       1  UNL1        0.0278
     22 H           0.6596   -0.6077    0.9530 H       1  UNL1        0.0278
     23 H           0.5814   -0.5055   -0.8259 H       1  UNL1        0.0278
     24 H           2.5339    2.1760   -0.2733 H       1  UNL1        0.0624
     25 H           5.1694   -2.0024    0.0184 H       1  UNL1        0.0636
     26 H           2.7564   -2.0713    0.3105 H       1  UNL1        0.0621
     27 H           6.9561    0.6130   -1.4122 H       1  UNL1        0.1523
     28 H           8.4573   -2.8091    2.4888 H       1  UNL1        0.0647
     29 H           9.9412   -3.8495    0.7765 H       1  UNL1        0.0619
     30 H           9.9789   -2.9317   -1.5253 H       1  UNL1        0.0633
     31 H           5.9024    2.8167    0.2357 H       1  UNL1        0.0427
     32 H           4.4248    3.4766   -0.4631 H       1  UNL1        0.0427
     33 H           4.5779    1.6724   -2.7297 H       1  UNL1        0.2951
@<TRIPOS>BOND
     1     1     2    1
     2     2     3   ar
     3     3     4   ar
     4     4     5   ar
     5     5     6   ar
     6     6     7   ar
     7     2     7   ar
     8     5     8    1
     9     8     9    1
    10     9    10   ar
    11    10    11   ar
    12    11    12   ar
    13    12    13   ar
    14    13    14   ar
    15     9    14   ar
    16    14    15    1
    17    10    16    1
    18     4    17    1
    19    17    18    1
    20    18    19    2
    21    18    20    1
    22     1    21    1
    23     1    22    1
    24     1    23    1
    25     3    24    1
    26     6    25    1
    27     7    26    1
    28     8    27    1
    29    11    28    1
    30    12    29    1
    31    13    30    1
    32    17    31    1
    33    17    32    1
    34    20    33    1
