@<TRIPOS>MOLECULE
methadone
51 52 1
SMALL
GASTEIGER

@<TRIPOS>DICT

@<TRIPOS>ATOM
      1 C           3.1537   -1.2223   -3.1646 C.3       1 UNL1        0.0000
      2 C           2.5365    0.1588   -2.6115 C.3       1 UNL1        0.0000
      3 C           2.6965   -1.2878   -4.6804 C.2       1 UNL1        0.0000
      4 C           2.5016   -2.4266   -2.3508 C.ar      1 UNL1        0.0000
      5 C           4.7407   -1.0827   -3.1937 C.ar      1 UNL1        0.0000
      6 C           2.7268    0.5464   -1.0974 C.3       1 UNL1        0.0000
      7 C           1.2919   -1.7740   -5.0245 C.3       1 UNL1        0.0000
      8 O           3.4213   -0.8665   -5.5956 O.2       1 UNL1        0.0000
      9 C           1.2377   -2.2893   -1.7199 C.ar      1 UNL1        0.0000
     10 C           3.0391   -3.7219   -2.2542 C.ar      1 UNL1        0.0000
     11 C           5.6596   -2.1347   -3.0871 C.ar      1 UNL1        0.0000
     12 C           5.3440    0.1738   -3.4580 C.ar      1 UNL1        0.0000
     13 N           1.8750    1.7312   -0.7777 N.4       1 UNL1        1.0000
     14 C           4.1790    0.7095   -0.6327 C.3       1 UNL1        0.0000
     15 C           0.9919   -1.6426   -6.5154 C.3       1 UNL1        0.0000
     16 C           0.6384   -3.3107   -0.9644 C.ar      1 UNL1        0.0000
     17 C           2.4642   -4.7431   -1.4772 C.ar      1 UNL1        0.0000
     18 C           7.0460   -1.9326   -2.9921 C.ar      1 UNL1        0.0000
     19 C           6.7265    0.3904   -3.3785 C.ar      1 UNL1        0.0000
     20 C           2.3490    2.9945   -1.3474 C.3       1 UNL1        0.0000
     21 C           1.6670    1.8942    0.6662 C.3       1 UNL1        0.0000
     22 C           1.2659   -4.5355   -0.8220 C.ar      1 UNL1        0.0000
     23 C           7.5766   -0.6611   -3.0935 C.ar      1 UNL1        0.0000
     24 H           1.4826    0.1224   -2.7926 H         1 UNL1        0.0000
     25 H           3.0949    0.9081   -3.1329 H         1 UNL1        0.0000
     26 H           2.3970   -0.2952   -0.5249 H         1 UNL1        0.0000
     27 H           0.5807   -1.1922   -4.4762 H         1 UNL1        0.0000
     28 H           1.2270   -2.8097   -4.7637 H         1 UNL1        0.0000
     29 H           0.7339   -1.3943   -1.8212 H         1 UNL1        0.0000
     30 H           3.9006   -3.9344   -2.7811 H         1 UNL1        0.0000
     31 H           5.3013   -3.1024   -3.0780 H         1 UNL1        0.0000
     32 H           4.7364    0.9655   -3.7211 H         1 UNL1        0.0000
     33 H           0.9851    1.5177   -1.2280 H         1 UNL1        0.0000
     34 H           4.6263    1.5362   -1.1439 H         1 UNL1        0.0000
     35 H           4.7260   -0.1836   -0.8517 H         1 UNL1        0.0000
     36 H           4.1978    0.8898    0.4219 H         1 UNL1        0.0000
     37 H           1.0507   -0.6133   -6.8017 H         1 UNL1        0.0000
     38 H           0.0081   -2.0128   -6.7153 H         1 UNL1        0.0000
     39 H           1.7067   -2.2097   -7.0744 H         1 UNL1        0.0000
     40 H          -0.2751   -3.1467   -0.5132 H         1 UNL1        0.0000
     41 H           2.9411   -5.6547   -1.3958 H         1 UNL1        0.0000
     42 H           7.6727   -2.7393   -2.8456 H         1 UNL1        0.0000
     43 H           7.1099    1.3360   -3.5330 H         1 UNL1        0.0000
     44 H           3.2851    3.2580   -0.9011 H         1 UNL1        0.0000
     45 H           1.6319    3.7645   -1.1533 H         1 UNL1        0.0000
     46 H           2.4762    2.8837   -2.4040 H         1 UNL1        0.0000
     47 H           2.6008    2.1181    1.1381 H         1 UNL1        0.0000
     48 H           1.2696    0.9881    1.0738 H         1 UNL1        0.0000
     49 H           0.9788    2.6950    0.8392 H         1 UNL1        0.0000
     50 H           0.8480   -5.2775   -0.2391 H         1 UNL1        0.0000
     51 H           8.5870   -0.4998   -2.9592 H         1 UNL1        0.0000
@<TRIPOS>BOND
     1    1    2 1
     2    1    4 1
     3    1    5 1
     4    1    3 1
     5    2    6 1
     6    2   25 1
     7    2   24 1
     8    3    8 2
     9    3    7 1
    10    4    9 ar
    11    4   10 ar
    12    5   11 ar
    13    5   12 ar
    14    6   14 1
    15    6   26 1
    16    6   13 1
    17    7   15 1
    18    7   28 1
    19    7   27 1
    20    9   29 1
    21    9   16 ar
    22   10   17 ar
    23   10   30 1
    24   11   18 ar
    25   11   31 1
    26   12   19 ar
    27   12   32 1
    28   13   33 1
    29   13   20 1
    30   13   21 1
    31   14   34 1
    32   14   35 1
    33   14   36 1
    34   15   37 1
    35   15   38 1
    36   15   39 1
    37   16   40 1
    38   16   22 ar
    39   17   41 1
    40   17   22 ar
    41   18   23 ar
    42   18   42 1
    43   19   43 1
    44   19   23 ar
    45   20   44 1
    46   20   46 1
    47   20   45 1
    48   21   49 1
    49   21   47 1
    50   21   48 1
    51   22   50 1
    52   23   51 1
@<TRIPOS>SUBSTRUCTURE
1 UNL1 1
@<TRIPOS>COMMENT
0.0000



