@<TRIPOS>MOLECULE
*****
 65 68 0 0 0
SMALL
GASTEIGER

@<TRIPOS>ATOM
      1 C           5.3085   -0.1256    0.1977 C.3     1  UNL1       -0.0584
      2 C           3.9305    0.5074    0.0978 C.3     1  UNL1        0.0046
      3 C           3.5014    1.1517    1.3916 C.ar    1  UNL1        0.1340
      4 N           3.8264    2.3798    1.6963 N.ar    1  UNL1       -0.1537
      5 N           3.2482    2.5736    2.9223 N.ar    1  UNL1       -0.2129
      6 C           2.5778    1.4290    3.3247 C.ar    1  UNL1        0.3468
      7 O           1.9889    1.2978    4.3868 O.2     1  UNL1       -0.2448
      8 N           2.7702    0.5090    2.3314 N.ar    1  UNL1       -0.2760
      9 C           2.2814   -0.8685    2.3313 C.3     1  UNL1        0.0634
     10 C           1.5075   -1.3402    3.5767 C.3     1  UNL1        0.1076
     11 O           0.2242   -0.7004    3.6289 O.3     1  UNL1       -0.4902
     12 C          -0.4093   -0.8040    4.8427 C.ar    1  UNL1        0.1206
     13 C          -1.1034    0.3237    5.2885 C.ar    1  UNL1       -0.0199
     14 C          -1.8192    0.2860    6.4886 C.ar    1  UNL1       -0.0583
     15 C          -1.8542   -0.8874    7.2399 C.ar    1  UNL1       -0.0615
     16 C          -1.1683   -2.0167    6.7950 C.ar    1  UNL1       -0.0583
     17 C          -0.4481   -1.9769    5.5975 C.ar    1  UNL1       -0.0199
     18 C           3.3388    3.7941    3.7049 C.3     1  UNL1        0.0479
     19 C           3.9862    3.5137    5.0666 C.3     1  UNL1       -0.0204
     20 C           4.0899    4.7119    6.0137 C.3     1  UNL1        0.0007
     21 N           2.8299    5.3663    6.3909 N.3     1  UNL1       -0.2993
     22 C           1.8555    4.4979    7.0951 C.3     1  UNL1        0.0147
     23 C           2.1502    4.1554    8.5832 C.3     1  UNL1        0.0250
     24 N           2.4608    5.3756    9.3679 N.pl3   1  UNL1       -0.3274
     25 C           3.4796    6.2284    8.7262 C.3     1  UNL1        0.0250
     26 C           3.0900    6.5416    7.2584 C.3     1  UNL1        0.0147
     27 C           2.3340    5.3588   10.7604 C.ar    1  UNL1        0.0311
     28 C           3.1846    6.0859   11.6143 C.ar    1  UNL1       -0.0223
     29 C           2.9748    6.1452   12.9997 C.ar    1  UNL1        0.0427
     30 C           1.9124    5.4735   13.5880 C.ar    1  UNL1       -0.0433
     31 C           1.0621    4.7311   12.7807 C.ar    1  UNL1       -0.0586
     32 C           1.2729    4.6806   11.3934 C.ar    1  UNL1       -0.0406
     33 CL          4.0363    7.0792   13.9857 Cl      1  UNL1       -0.0835
     34 H           5.6873   -0.3660   -0.8023 H       1  UNL1        0.0234
     35 H           5.2759   -1.0547    0.7747 H       1  UNL1        0.0234
     36 H           6.0273    0.5452    0.6788 H       1  UNL1        0.0234
     37 H           3.2016   -0.2443   -0.2194 H       1  UNL1        0.0341
     38 H           3.9499    1.2864   -0.6737 H       1  UNL1        0.0341
     39 H           3.1629   -1.5080    2.2024 H       1  UNL1        0.0527
     40 H           1.6591   -0.9904    1.4386 H       1  UNL1        0.0527
     41 H           2.0923   -1.1521    4.4865 H       1  UNL1        0.0714
     42 H           1.3522   -2.4207    3.4819 H       1  UNL1        0.0714
     43 H          -1.0683    1.2435    4.7100 H       1  UNL1        0.0654
     44 H          -2.3511    1.1687    6.8333 H       1  UNL1        0.0619
     45 H          -2.4215   -0.9255    8.1660 H       1  UNL1        0.0618
     46 H          -1.2024   -2.9352    7.3747 H       1  UNL1        0.0619
     47 H           0.0557   -2.8763    5.2639 H       1  UNL1        0.0654
     48 H           2.3176    4.1696    3.8318 H       1  UNL1        0.0511
     49 H           3.9141    4.5337    3.1376 H       1  UNL1        0.0511
     50 H           4.9976    3.1258    4.8885 H       1  UNL1        0.0295
     51 H           3.4630    2.7080    5.5891 H       1  UNL1        0.0295
     52 H           4.7283    5.4537    5.5168 H       1  UNL1        0.0427
     53 H           4.6329    4.3780    6.9052 H       1  UNL1        0.0427
     54 H           1.6765    3.5733    6.5365 H       1  UNL1        0.0442
     55 H           0.8917    5.0263    7.0698 H       1  UNL1        0.0442
     56 H           2.9921    3.4561    8.6486 H       1  UNL1        0.0476
     57 H           1.2646    3.6363    8.9611 H       1  UNL1        0.0476
     58 H           4.4583    5.7346    8.7718 H       1  UNL1        0.0476
     59 H           3.5650    7.1961    9.2323 H       1  UNL1        0.0476
     60 H           3.8599    7.1795    6.8073 H       1  UNL1        0.0442
     61 H           2.1762    7.1506    7.2738 H       1  UNL1        0.0442
     62 H           4.0379    6.6282   11.2212 H       1  UNL1        0.0651
     63 H           1.7375    5.5339   14.6586 H       1  UNL1        0.0632
     64 H           0.2171    4.2056   13.2191 H       1  UNL1        0.0619
     65 H           0.5428    4.1257   10.8119 H       1  UNL1        0.0636
@<TRIPOS>BOND
     1     1     2    1
     2     2     3    1
     3     3     4   ar
     4     4     5   ar
     5     5     6   ar
     6     6     7    2
     7     6     8   ar
     8     3     8   ar
     9     8     9    1
    10     9    10    1
    11    10    11    1
    12    11    12    1
    13    12    13   ar
    14    13    14   ar
    15    14    15   ar
    16    15    16   ar
    17    16    17   ar
    18    12    17   ar
    19     5    18    1
    20    18    19    1
    21    19    20    1
    22    20    21    1
    23    21    22    1
    24    22    23    1
    25    23    24    1
    26    24    25    1
    27    25    26    1
    28    21    26    1
    29    24    27    1
    30    27    28   ar
    31    28    29   ar
    32    29    30   ar
    33    30    31   ar
    34    31    32   ar
    35    27    32   ar
    36    29    33    1
    37     1    34    1
    38     1    35    1
    39     1    36    1
    40     2    37    1
    41     2    38    1
    42     9    39    1
    43     9    40    1
    44    10    41    1
    45    10    42    1
    46    13    43    1
    47    14    44    1
    48    15    45    1
    49    16    46    1
    50    17    47    1
    51    18    48    1
    52    18    49    1
    53    19    50    1
    54    19    51    1
    55    20    52    1
    56    20    53    1
    57    22    54    1
    58    22    55    1
    59    23    56    1
    60    23    57    1
    61    25    58    1
    62    25    59    1
    63    26    60    1
    64    26    61    1
    65    28    62    1
    66    30    63    1
    67    31    64    1
    68    32    65    1
