@<TRIPOS>MOLECULE
*****
 45 47 0 0 0
SMALL
GASTEIGER

@<TRIPOS>ATOM
      1 C           5.2701    0.5894    0.6888 C.3     1  UNL1       -0.0612
      2 C           4.0048   -0.0180    0.0962 C.3     1  UNL1       -0.0291
      3 C           3.8648    0.3613   -1.3505 C.ar    1  UNL1       -0.0295
      4 C           4.4207   -0.4215   -2.3509 C.ar    1  UNL1        0.0310
      5 N           4.4370   -0.0727   -3.6548 N.ar    1  UNL1       -0.2595
      6 C           3.8708    1.1088   -4.0129 C.ar    1  UNL1        0.0445
      7 C           3.2625    1.9394   -3.0809 C.ar    1  UNL1       -0.0400
      8 C           3.2588    1.5577   -1.7381 C.ar    1  UNL1       -0.0555
      9 C           3.9881    1.5277   -5.4649 C.3     1  UNL1        0.0239
     10 C           4.0667    0.2905   -6.3509 C.3     1  UNL1        0.0950
     11 O           4.1645    0.5816   -7.7511 O.3     1  UNL1       -0.4916
     12 C           4.3248   -0.5544   -8.5187 C.ar    1  UNL1        0.1205
     13 C           4.2853   -1.8610   -8.0152 C.ar    1  UNL1       -0.0197
     14 C           4.4932   -2.9585   -8.8445 C.ar    1  UNL1       -0.0551
     15 C           4.7123   -2.7858  -10.2108 C.ar    1  UNL1       -0.0456
     16 C           4.7418   -1.4801  -10.7259 C.ar    1  UNL1       -0.0551
     17 C           4.5508   -0.3748   -9.8814 C.ar    1  UNL1       -0.0197
     18 C           4.9200   -3.9952  -11.0973 C.3     1  UNL1       -0.0069
     19 C           3.7927   -5.0227  -10.9918 C.3     1  UNL1        0.0945
     20 C           2.4720   -4.5847  -11.5970 C.2     1  UNL1        0.2336
     21 O           2.0117   -3.4524  -11.6115 O.2     1  UNL1       -0.2741
     22 N           1.8014   -5.6543  -12.1129 N.am    1  UNL1       -0.2463
     23 C           2.5243   -6.7559  -12.4184 C.2     1  UNL1        0.2789
     24 O           2.1131   -7.7239  -13.0347 O.2     1  UNL1       -0.2625
     25 S           4.1748   -6.5773  -11.8732 S.3     1  UNL1       -0.0542
     26 H           5.3616    0.3297    1.7470 H       1  UNL1        0.0233
     27 H           5.2616    1.6820    0.6052 H       1  UNL1        0.0233
     28 H           6.1640    0.2245    0.1704 H       1  UNL1        0.0233
     29 H           3.1270    0.3204    0.6589 H       1  UNL1        0.0311
     30 H           4.0353   -1.1097    0.1988 H       1  UNL1        0.0311
     31 H           4.9048   -1.3681   -2.1273 H       1  UNL1        0.0832
     32 H           2.8141    2.8814   -3.3803 H       1  UNL1        0.0636
     33 H           2.8093    2.2105   -0.9967 H       1  UNL1        0.0621
     34 H           4.8851    2.1449   -5.5906 H       1  UNL1        0.0361
     35 H           3.1307    2.1413   -5.7643 H       1  UNL1        0.0361
     36 H           3.1574   -0.2998   -6.1778 H       1  UNL1        0.0700
     37 H           4.9580   -0.2794   -6.0566 H       1  UNL1        0.0700
     38 H           4.1014   -2.0743   -6.9699 H       1  UNL1        0.0654
     39 H           4.4772   -3.9465   -8.3918 H       1  UNL1        0.0621
     40 H           4.9059   -1.3115  -11.7876 H       1  UNL1        0.0621
     41 H           4.5774    0.6310  -10.3020 H       1  UNL1        0.0654
     42 H           5.8684   -4.4526  -10.7798 H       1  UNL1        0.0329
     43 H           5.0559   -3.6766  -12.1367 H       1  UNL1        0.0329
     44 H           3.5928   -5.3031   -9.9525 H       1  UNL1        0.0515
     45 H           0.8894   -5.5328  -12.5224 H       1  UNL1        0.1583
@<TRIPOS>BOND
     1     1     2    1
     2     2     3    1
     3     3     4   ar
     4     4     5   ar
     5     5     6   ar
     6     6     7   ar
     7     7     8   ar
     8     3     8   ar
     9     6     9    1
    10     9    10    1
    11    10    11    1
    12    11    12    1
    13    12    13   ar
    14    13    14   ar
    15    14    15   ar
    16    15    16   ar
    17    16    17   ar
    18    12    17   ar
    19    15    18    1
    20    18    19    1
    21    19    20    1
    22    20    21    2
    23    20    22   am
    24    22    23   am
    25    23    24    2
    26    23    25    1
    27    19    25    1
    28     1    26    1
    29     1    27    1
    30     1    28    1
    31     2    29    1
    32     2    30    1
    33     4    31    1
    34     7    32    1
    35     8    33    1
    36     9    34    1
    37     9    35    1
    38    10    36    1
    39    10    37    1
    40    13    38    1
    41    14    39    1
    42    16    40    1
    43    17    41    1
    44    18    42    1
    45    18    43    1
    46    19    44    1
    47    22    45    1
