@<TRIPOS>MOLECULE
*****
 44 46 0 0 0
SMALL
GASTEIGER

@<TRIPOS>ATOM
      1 C           4.2576   -0.2224   -0.2467 C.3     1  UNL1        0.0021
      2 N           4.9997   -1.4756   -0.2515 N.pl3   1  UNL1       -0.3150
      3 C           4.4266   -2.5632   -1.0597 C.3     1  UNL1        0.0474
      4 C           4.1421   -3.8173   -0.2250 C.3     1  UNL1        0.1052
      5 O           3.0299   -3.6207    0.6774 O.3     1  UNL1       -0.4904
      6 C           2.3995   -4.7794    1.0628 C.ar    1  UNL1        0.1206
      7 C           2.9578   -6.0487    0.9538 C.ar    1  UNL1       -0.0197
      8 C           2.1812   -7.1885    1.1687 C.ar    1  UNL1       -0.0551
      9 C           0.8463   -7.0941    1.5712 C.ar    1  UNL1       -0.0456
     10 C           0.3253   -5.8094    1.8014 C.ar    1  UNL1       -0.0551
     11 C           1.0955   -4.6618    1.5465 C.ar    1  UNL1       -0.0197
     12 C          -0.0589   -8.3099    1.5729 C.3     1  UNL1       -0.0069
     13 C           0.2378   -9.4965    2.5093 C.3     1  UNL1        0.0945
     14 C          -0.8122  -10.5727    2.2638 C.2     1  UNL1        0.2336
     15 O          -2.0214  -10.3799    2.2385 O.2     1  UNL1       -0.2741
     16 N          -0.2676  -11.7973    2.0146 N.am    1  UNL1       -0.2463
     17 C           1.0610  -11.8688    1.7970 C.2     1  UNL1        0.2789
     18 O           1.6548  -12.8177    1.3101 O.2     1  UNL1       -0.2625
     19 S           1.8250  -10.3728    2.2458 S.3     1  UNL1       -0.0542
     20 C           6.3949   -1.4057   -0.1807 C.ar    1  UNL1        0.1211
     21 C           7.0347   -0.3676    0.5055 C.ar    1  UNL1       -0.0217
     22 C           8.4275   -0.2796    0.5316 C.ar    1  UNL1       -0.0571
     23 C           9.1753   -1.2434   -0.1190 C.ar    1  UNL1       -0.0435
     24 C           8.4889   -2.2634   -0.7479 C.ar    1  UNL1        0.0297
     25 N           7.1377   -2.3650   -0.7803 N.ar    1  UNL1       -0.2403
     26 H           3.1976   -0.3829   -0.4723 H       1  UNL1        0.0428
     27 H           4.6514    0.4727   -0.9976 H       1  UNL1        0.0428
     28 H           4.2883    0.2494    0.7403 H       1  UNL1        0.0428
     29 H           5.0770   -2.8241   -1.9042 H       1  UNL1        0.0497
     30 H           3.4828   -2.2374   -1.5145 H       1  UNL1        0.0497
     31 H           5.0240   -4.1139    0.3528 H       1  UNL1        0.0712
     32 H           3.8930   -4.6032   -0.9503 H       1  UNL1        0.0712
     33 H           3.9900   -6.1927    0.6510 H       1  UNL1        0.0654
     34 H           2.6441   -8.1440    0.9474 H       1  UNL1        0.0621
     35 H          -0.7074   -5.6795    2.1201 H       1  UNL1        0.0621
     36 H           0.6547   -3.6765    1.6771 H       1  UNL1        0.0654
     37 H          -0.1275   -8.6633    0.5339 H       1  UNL1        0.0329
     38 H          -1.0755   -7.9619    1.8076 H       1  UNL1        0.0329
     39 H           0.1843   -9.1926    3.5595 H       1  UNL1        0.0515
     40 H          -0.8544  -12.5684    1.7484 H       1  UNL1        0.1583
     41 H           6.4650    0.3869    1.0349 H       1  UNL1        0.0652
     42 H           8.9129    0.5378    1.0565 H       1  UNL1        0.0619
     43 H          10.2579   -1.2054   -0.1301 H       1  UNL1        0.0633
     44 H           9.0228   -3.0537   -1.2672 H       1  UNL1        0.0830
@<TRIPOS>BOND
     1     1     2    1
     2     2     3    1
     3     3     4    1
     4     4     5    1
     5     5     6    1
     6     6     7   ar
     7     7     8   ar
     8     8     9   ar
     9     9    10   ar
    10    10    11   ar
    11     6    11   ar
    12     9    12    1
    13    12    13    1
    14    13    14    1
    15    14    15    2
    16    14    16   am
    17    16    17   am
    18    17    18    2
    19    17    19    1
    20    13    19    1
    21     2    20    1
    22    20    21   ar
    23    21    22   ar
    24    22    23   ar
    25    23    24   ar
    26    24    25   ar
    27    20    25   ar
    28     1    26    1
    29     1    27    1
    30     1    28    1
    31     3    29    1
    32     3    30    1
    33     4    31    1
    34     4    32    1
    35     7    33    1
    36     8    34    1
    37    10    35    1
    38    11    36    1
    39    12    37    1
    40    12    38    1
    41    13    39    1
    42    16    40    1
    43    21    41    1
    44    22    42    1
    45    23    43    1
    46    24    44    1
