@<TRIPOS>MOLECULE
*****
 44 47 0 0 0
SMALL
GASTEIGER

@<TRIPOS>ATOM
      1 C          -2.7180    0.4165    0.5275 C.3     1  UNL1       -0.0393
      2 C          -1.6281    0.5466   -0.5052 C.ar    1  UNL1       -0.0432
      3 C          -1.7367    1.5879   -1.4517 C.ar    1  UNL1       -0.0130
      4 C          -0.7558    1.7120   -2.4111 C.ar    1  UNL1        0.1665
      5 C           0.2776    0.8185   -2.4970 C.ar    1  UNL1        0.1665
      6 C           0.4315   -0.1971   -1.5900 C.ar    1  UNL1       -0.0123
      7 C          -0.4943   -0.3177   -0.5350 C.ar    1  UNL1       -0.0333
      8 C          -0.1518   -1.2537    0.6113 C.3     1  UNL1        0.0366
      9 C           0.6208   -2.5073    0.1709 C.2     1  UNL1        0.1759
     10 O           1.8417   -2.4285    0.0254 O.2     1  UNL1       -0.2911
     11 C          -0.1110   -3.7370   -0.1002 C.ar    1  UNL1        0.0814
     12 C           0.3214   -5.0498   -0.1866 C.ar    1  UNL1        0.1261
     13 C          -0.7679   -5.9644   -0.3908 C.ar    1  UNL1       -0.0273
     14 C          -1.9748   -5.3266   -0.5196 C.ar    1  UNL1       -0.0217
     15 S          -1.8066   -3.6405   -0.4305 S.2     1  UNL1       -0.0918
     16 S           1.9520   -5.6501    0.0122 S.O2    1  UNL1        0.0758
     17 O           2.6297   -4.7464    0.9083 O.2     1  UNL1       -0.1499
     18 O           1.7515   -7.0221    0.4255 O.2     1  UNL1       -0.1499
     19 N           2.7912   -5.7446   -1.4486 N.pl3   1  UNL1       -0.1821
     20 C           2.8593   -4.5181   -2.1681 C.ar    1  UNL1        0.2554
     21 C           3.9306   -3.6568   -2.2319 C.ar    1  UNL1        0.1262
     22 C           3.5474   -2.6794   -3.1815 C.ar    1  UNL1        0.1009
     23 N           2.3301   -2.9445   -3.6790 N.ar    1  UNL1       -0.0798
     24 O           1.8949   -4.0845   -3.0249 O.2     1  UNL1       -0.3364
     25 C           4.2843   -1.4857   -3.6605 C.3     1  UNL1       -0.0176
     26 CL          5.3850   -3.7288   -1.3636 Cl      1  UNL1       -0.0762
     27 O           1.1444    1.1064   -3.5032 O.3     1  UNL1       -0.4526
     28 C           0.6720    2.4177   -3.8578 C.3     1  UNL1        0.2332
     29 O          -0.6467    2.7014   -3.3389 O.3     1  UNL1       -0.4526
     30 H          -3.6093    0.9839    0.2331 H       1  UNL1        0.0278
     31 H          -2.3805    0.7886    1.4983 H       1  UNL1        0.0278
     32 H          -3.0390   -0.6257    0.6211 H       1  UNL1        0.0278
     33 H          -2.5526    2.3034   -1.4183 H       1  UNL1        0.0658
     34 H           1.3029   -0.8347   -1.6850 H       1  UNL1        0.0658
     35 H          -1.0287   -1.5455    1.1980 H       1  UNL1        0.0394
     36 H           0.4901   -0.7056    1.3105 H       1  UNL1        0.0394
     37 H          -0.6660   -7.0433   -0.4196 H       1  UNL1        0.0643
     38 H          -2.9492   -5.7686   -0.6712 H       1  UNL1        0.0694
     39 H           3.7180   -6.0978   -1.2095 H       1  UNL1        0.1768
     40 H           5.2212   -1.3326   -3.1165 H       1  UNL1        0.0294
     41 H           3.6751   -0.5852   -3.5320 H       1  UNL1        0.0294
     42 H           4.5274   -1.5844   -4.7240 H       1  UNL1        0.0294
     43 H           0.6631    2.5151   -4.9475 H       1  UNL1        0.1166
     44 H           1.3786    3.1492   -3.4432 H       1  UNL1        0.1166
@<TRIPOS>BOND
     1     1     2    1
     2     2     3   ar
     3     3     4   ar
     4     4     5   ar
     5     5     6   ar
     6     6     7   ar
     7     2     7   ar
     8     7     8    1
     9     8     9    1
    10     9    10    2
    11     9    11    1
    12    11    12   ar
    13    12    13   ar
    14    13    14   ar
    15    14    15   ar
    16    11    15   ar
    17    12    16    1
    18    16    17    2
    19    16    18    2
    20    16    19    1
    21    19    20    1
    22    20    21   ar
    23    21    22   ar
    24    22    23   ar
    25    23    24   ar
    26    20    24   ar
    27    22    25    1
    28    21    26    1
    29     5    27    1
    30    27    28    1
    31    28    29    1
    32     4    29    1
    33     1    30    1
    34     1    31    1
    35     1    32    1
    36     3    33    1
    37     6    34    1
    38     8    35    1
    39     8    36    1
    40    13    37    1
    41    14    38    1
    42    19    39    1
    43    25    40    1
    44    25    41    1
    45    25    42    1
    46    28    43    1
    47    28    44    1
