@<TRIPOS>MOLECULE
sitaxentran
44 47 1
SMALL
GASTEIGER

@<TRIPOS>DICT

@<TRIPOS>ATOM
      1 C          -4.0946    0.9944    1.1687 C.3       1 <1>         0.0000
      2 H          -4.8563    0.8477    1.9353 H         1 <1>         0.0000
      3 H          -4.4652    1.7048    0.4314 H         1 <1>         0.0000
      4 H          -3.1756    1.3480    1.6322 H         1 <1>         0.0000
      5 C          -3.7985   -0.3303    0.4864 C.ar      1 <1>         0.0000
      6 C          -4.3812   -1.4842    1.0297 C.ar      1 <1>         0.0000
      7 H          -5.0053   -1.4319    1.8829 H         1 <1>         0.0000
      8 C          -4.1270   -2.7087    0.4305 C.ar      1 <1>         0.0000
      9 C          -3.3226   -2.8044   -0.6737 C.ar      1 <1>         0.0000
     10 C          -2.7305   -1.6820   -1.2338 C.ar      1 <1>         0.0000
     11 H          -2.1100   -1.7795   -2.0872 H         1 <1>         0.0000
     12 C          -2.9636   -0.4269   -0.6545 C.ar      1 <1>         0.0000
     13 C          -2.3000    0.7853   -1.3165 C.3       1 <1>         0.0000
     14 H          -2.9082    1.6645   -1.1767 H         1 <1>         0.0000
     15 H          -2.1914    0.5817   -2.3744 H         1 <1>         0.0000
     16 C          -0.8932    0.9785   -0.7413 C.2       1 <1>         0.0000
     17 O          -0.1576    0.0129   -0.7077 O.2       1 <1>         0.0000
     18 C          -0.4276    2.2832   -0.2988 C.2       1 <1>         0.0000
     19 C           0.8588    2.8150   -0.2955 C.2       1 <1>         0.0000
     20 C           0.9060    4.0930    0.2829 C.2       1 <1>         0.0000
     21 H           1.7969    4.6574    0.3803 H         1 <1>         0.0000
     22 C          -0.3106    4.5509    0.7010 C.2       1 <1>         0.0000
     23 H          -0.5232    5.4811    1.1612 H         1 <1>         0.0000
     24 S          -1.5562    3.4145    0.3867 S.3       1 <1>         0.0000
     25 S           2.3482    2.1101   -1.0051 S.o2      1 <1>         0.0000
     26 O           3.2258    3.1776   -1.3492 O.2       1 <1>         0.0000
     27 O           2.0074    1.2334   -2.0739 O.2       1 <1>         0.0000
     28 N           3.0438    1.2229    0.2485 N.am      1 <1>         0.0000
     29 H           2.3830    0.7341    0.8756 H         1 <1>         0.0000
     30 C           4.2807    0.5735    0.0468 C.2       1 <1>         0.0000
     31 C           4.8575   -0.4098    0.7609 C.2       1 <1>         0.0000
     32 C           6.0696   -0.6653    0.1284 C.2       1 <1>         0.0000
     33 N           6.2134    0.1184   -0.8927 N.2       1 <1>         0.0000
     34 O           5.1092    0.9006   -0.9628 O.3       1 <1>         0.0000
     35 C           7.0870   -1.6990    0.5530 C.3       1 <1>         0.0000
     36 H           6.5705   -2.6490    0.6847 H         1 <1>         0.0000
     37 H           7.5327   -1.3731    1.4922 H         1 <1>         0.0000
     38 H           7.8467   -1.7879   -0.2230 H         1 <1>         0.0000
     39 CL          4.2194   -1.1797    2.1548 Cl        1 <1>         0.0000
     40 O          -3.2121   -4.0876   -1.0909 O.3       1 <1>         0.0000
     41 C          -4.0291   -4.8967   -0.1596 C.3       1 <1>         0.0000
     42 H          -3.3898   -5.5945    0.3651 H         1 <1>         0.0000
     43 H          -4.8347   -5.3690   -0.7064 H         1 <1>         0.0000
     44 O          -4.5927   -3.9241    0.8048 O.3       1 <1>         0.0000
@<TRIPOS>BOND
     1    1    2 1
     2    1    3 1
     3    1    4 1
     4    1    5 1
     5    5    6 ar
     6    5   12 ar
     7    6    7 1
     8    6    8 ar
     9    8    9 ar
    10    8   44 1
    11    9   10 ar
    12    9   40 1
    13   10   12 ar
    14   10   11 1
    15   12   13 1
    16   13   14 1
    17   13   15 1
    18   13   16 1
    19   16   17 2
    20   16   18 1
    21   18   19 2
    22   18   24 1
    23   19   25 1
    24   19   20 1
    25   20   21 1
    26   20   22 2
    27   22   23 1
    28   22   24 1
    29   25   27 2
    30   25   26 2
    31   25   28 1
    32   28   29 1
    33   28   30 1
    34   30   31 2
    35   30   34 1
    36   31   32 1
    37   31   39 1
    38   32   35 1
    39   32   33 2
    40   33   34 1
    41   35   36 1
    42   35   37 1
    43   35   38 1
    44   40   41 1
    45   41   43 1
    46   41   42 1
    47   41   44 1
@<TRIPOS>SUBSTRUCTURE
1 <1> 1
@<TRIPOS>COMMENT
0.0000



