@<TRIPOS>MOLECULE
tolcapone
31 32 1
SMALL
GASTEIGER

@<TRIPOS>DICT

@<TRIPOS>ATOM
      1 C           5.0888    1.2933    0.1263 C.3       1 <1>         0.0000
      2 H           5.9005    0.5701    0.2036 H         1 <1>         0.0000
      3 H           5.0398    1.9062    1.0265 H         1 <1>         0.0000
      4 H           5.2362    1.9207   -0.7525 H         1 <1>         0.0000
      5 C           3.7775    0.5484   -0.0101 C.ar      1 <1>         0.0000
      6 C           3.5709   -0.6408    0.6879 C.ar      1 <1>         0.0000
      7 H           4.3356   -1.0310    1.3082 H         1 <1>         0.0000
      8 C           2.3642   -1.3204    0.5784 C.ar      1 <1>         0.0000
      9 H           2.2229   -2.2236    1.1147 H         1 <1>         0.0000
     10 C           1.3343   -0.8165   -0.2250 C.ar      1 <1>         0.0000
     11 C           1.5482    0.3752   -0.9279 C.ar      1 <1>         0.0000
     12 H           0.7842    0.7678   -1.5484 H         1 <1>         0.0000
     13 C           2.7572    1.0514   -0.8172 C.ar      1 <1>         0.0000
     14 H           2.8990    1.9569   -1.3489 H         1 <1>         0.0000
     15 C           0.0631   -1.5265   -0.3212 C.2       1 <1>         0.0000
     16 O           0.0884   -2.7266   -0.5464 O.2       1 <1>         0.0000
     17 C          -1.2230   -0.8526   -0.1399 C.ar      1 <1>         0.0000
     18 C          -2.4065   -1.4535   -0.6005 C.ar      1 <1>         0.0000
     19 H          -2.3766   -2.3885   -1.1001 H         1 <1>         0.0000
     20 C          -3.6249   -0.8128   -0.3940 C.ar      1 <1>         0.0000
     21 C          -3.7118    0.4236    0.2502 C.ar      1 <1>         0.0000
     22 C          -2.5335    1.0213    0.7049 C.ar      1 <1>         0.0000
     23 C          -1.3038    0.3933    0.5181 C.ar      1 <1>         0.0000
     24 H          -0.4266    0.8583    0.8870 H         1 <1>         0.0000
     25 O          -2.5731    2.2335    1.3450 O.3       1 <1>         0.0000
     26 H          -1.6768    2.5164    1.6066 H         1 <1>         0.0000
     27 O          -4.9164    1.0382    0.4427 O.3       1 <1>         0.0000
     28 H          -4.8024    1.8941    0.9019 H         1 <1>         0.0000
     29 N          -4.8107   -1.4717   -0.8586 N.pl3     1 <1>         1.0000
     30 O          -5.1693   -2.5137   -0.3372 O.co2     1 <1>        -0.5000
     31 O          -5.4554   -0.9907   -1.7741 O.co2     1 <1>        -0.5000
@<TRIPOS>BOND
     1    1    2 1
     2    1    4 1
     3    1    5 1
     4    1    3 1
     5    5   13 ar
     6    5    6 ar
     7    6    8 ar
     8    6    7 1
     9    8    9 1
    10    8   10 ar
    11   10   15 1
    12   10   11 ar
    13   11   13 ar
    14   11   12 1
    15   13   14 1
    16   15   16 2
    17   15   17 1
    18   17   18 ar
    19   17   23 ar
    20   18   19 1
    21   18   20 ar
    22   20   29 1
    23   20   21 ar
    24   21   22 ar
    25   21   27 1
    26   22   23 ar
    27   22   25 1
    28   23   24 1
    29   25   26 1
    30   27   28 1
    31   29   30 ar
    32   29   31 ar
@<TRIPOS>SUBSTRUCTURE
1 <1> 1
@<TRIPOS>COMMENT
0.0000



