@<TRIPOS>MOLECULE
*****
 31 32 0 0 0
SMALL
GASTEIGER

@<TRIPOS>ATOM
      1 C           0.9562    0.0033    0.2030 C.3     1  UNL1       -0.0397
      2 C           2.4553    0.0489    0.1568 C.ar    1  UNL1       -0.0504
      3 C           3.1232    1.1322   -0.4251 C.ar    1  UNL1       -0.0582
      4 C           4.5142    1.1140   -0.5644 C.ar    1  UNL1       -0.0507
      5 C           5.2532    0.0071   -0.1318 C.ar    1  UNL1        0.0223
      6 C           4.5947   -1.0389    0.5252 C.ar    1  UNL1       -0.0507
      7 C           3.2023   -1.0279    0.6467 C.ar    1  UNL1       -0.0582
      8 C           6.7207   -0.0048   -0.3900 C.2     1  UNL1        0.1935
      9 O           7.3286    1.0613   -0.4482 O.2     1  UNL1       -0.2866
     10 C           7.4868   -1.2698   -0.5920 C.ar    1  UNL1        0.0324
     11 C           8.8612   -1.2653   -0.3035 C.ar    1  UNL1        0.0304
     12 C           9.6147   -2.4452   -0.4377 C.ar    1  UNL1        0.3184
     13 C           8.9954   -3.6314   -0.8437 C.ar    1  UNL1        0.2370
     14 C           7.6396   -3.6039   -1.1659 C.ar    1  UNL1        0.1659
     15 C           6.8899   -2.4374   -1.0786 C.ar    1  UNL1       -0.0053
     16 O           7.0103   -4.7507   -1.5631 O.3     1  UNL1       -0.5031
     17 O           9.5995   -4.8576   -0.9606 O.3     1  UNL1       -0.4989
     18 N          11.0467   -2.4147   -0.1397 N.pl3   1  UNL1        0.0836
     19 O          11.5523   -1.3364    0.1966 O.2     1  UNL1        0.0416
     20 O          11.6710   -3.4828   -0.2447 O.co2   1  UNL1       -0.5759
     21 H           0.5188    0.9873    0.0067 H       1  UNL1        0.0278
     22 H           0.6091   -0.3252    1.1877 H       1  UNL1        0.0278
     23 H           0.5864   -0.6934   -0.5570 H       1  UNL1        0.0278
     24 H           2.5659    1.9926   -0.7897 H       1  UNL1        0.0620
     25 H           5.0162    1.9600   -1.0300 H       1  UNL1        0.0625
     26 H           5.1405   -1.8833    0.9370 H       1  UNL1        0.0625
     27 H           2.7016   -1.8728    1.1160 H       1  UNL1        0.0620
     28 H           9.3309   -0.3381    0.0273 H       1  UNL1        0.0694
     29 H           5.8489   -2.4658   -1.3881 H       1  UNL1        0.0662
     30 H           7.6948   -5.4500   -1.5192 H       1  UNL1        0.2923
     31 H          10.5511   -4.7780   -0.7281 H       1  UNL1        0.2925
@<TRIPOS>BOND
     1     1     2    1
     2     2     3   ar
     3     3     4   ar
     4     4     5   ar
     5     5     6   ar
     6     6     7   ar
     7     2     7   ar
     8     5     8    1
     9     8     9    2
    10     8    10    1
    11    10    11   ar
    12    11    12   ar
    13    12    13   ar
    14    13    14   ar
    15    14    15   ar
    16    10    15   ar
    17    14    16    1
    18    13    17    1
    19    12    18    1
    20    18    19    2
    21    18    20    1
    22     1    21    1
    23     1    22    1
    24     1    23    1
    25     3    24    1
    26     4    25    1
    27     6    26    1
    28     7    27    1
    29    11    28    1
    30    15    29    1
    31    16    30    1
    32    17    31    1
