@<TRIPOS>MOLECULE
*****
 58 61 0 0 0
SMALL
GASTEIGER

@<TRIPOS>ATOM
      1 C           1.0405   -0.0928   -0.0933 C.3     1  UNL1       -0.0359
      2 C           2.5478   -0.0225   -0.0974 C.ar    1  UNL1       -0.0024
      3 C           3.2829    1.1810   -0.1305 C.ar    1  UNL1       -0.0021
      4 C           4.6965    1.1189   -0.1145 C.ar    1  UNL1        0.1282
      5 C           5.3839   -0.1133   -0.1236 C.ar    1  UNL1        0.0011
      6 C           6.8905   -0.1349   -0.1711 C.3     1  UNL1       -0.0201
      7 C           7.4729    1.2345   -0.4547 C.3     1  UNL1       -0.0058
      8 C           6.7289    2.3051    0.3483 C.3     1  UNL1        0.1418
      9 O           5.3528    2.3357   -0.0796 O.3     1  UNL1       -0.4820
     10 C           6.7970    2.0885    1.8742 C.3     1  UNL1       -0.0217
     11 C           7.3599    3.6859    0.0345 C.3     1  UNL1        0.1288
     12 O           8.7174    3.6780    0.4924 O.3     1  UNL1       -0.4880
     13 C           9.4731    4.7954    0.3084 C.ar    1  UNL1        0.1207
     14 C           9.0621    5.9662   -0.3169 C.ar    1  UNL1       -0.0197
     15 C           9.9662    7.0186   -0.4987 C.ar    1  UNL1       -0.0551
     16 C          11.2853    6.9371   -0.0358 C.ar    1  UNL1       -0.0456
     17 C          11.6793    5.7631    0.6221 C.ar    1  UNL1       -0.0551
     18 C          10.7806    4.7033    0.7848 C.ar    1  UNL1       -0.0197
     19 C          12.3132    7.9987   -0.3694 C.3     1  UNL1       -0.0069
     20 C          12.1602    9.4148    0.2104 C.3     1  UNL1        0.0945
     21 C          13.3241   10.2567   -0.2954 C.2     1  UNL1        0.2336
     22 O          14.5054    9.9477   -0.1956 O.2     1  UNL1       -0.2741
     23 N          12.9164   11.3880   -0.9348 N.am    1  UNL1       -0.2463
     24 C          11.6008   11.5380   -1.1987 C.2     1  UNL1        0.2789
     25 O          11.1136   12.3590   -1.9573 O.2     1  UNL1       -0.2625
     26 S          10.6800   10.3448   -0.3292 S.3     1  UNL1       -0.0542
     27 C           4.6537   -1.3182   -0.0485 C.ar    1  UNL1       -0.0021
     28 C           3.2491   -1.2466   -0.0453 C.ar    1  UNL1        0.1234
     29 O           2.4801   -2.3848    0.0136 O.3     1  UNL1       -0.5062
     30 C           5.3452   -2.6555    0.0402 C.3     1  UNL1       -0.0359
     31 C           2.6434    2.5466   -0.1728 C.3     1  UNL1       -0.0359
     32 H           0.5408    0.8725   -0.1532 H       1  UNL1        0.0279
     33 H           0.6936   -0.5727    0.8289 H       1  UNL1        0.0279
     34 H           0.6933   -0.6781   -0.9523 H       1  UNL1        0.0279
     35 H           7.2348   -0.8173   -0.9570 H       1  UNL1        0.0316
     36 H           7.2716   -0.5001    0.7898 H       1  UNL1        0.0316
     37 H           7.3544    1.4447   -1.5275 H       1  UNL1        0.0308
     38 H           8.5482    1.2266   -0.2456 H       1  UNL1        0.0308
     39 H           6.2350    1.2094    2.2030 H       1  UNL1        0.0269
     40 H           6.3468    2.9397    2.3986 H       1  UNL1        0.0269
     41 H           7.8295    1.9772    2.2205 H       1  UNL1        0.0269
     42 H           6.7928    4.4758    0.5444 H       1  UNL1        0.0737
     43 H           7.3136    3.8776   -1.0458 H       1  UNL1        0.0737
     44 H           8.0560    6.0839   -0.7036 H       1  UNL1        0.0654
     45 H           9.6154    7.8869   -1.0491 H       1  UNL1        0.0621
     46 H          12.7002    5.6382    0.9779 H       1  UNL1        0.0621
     47 H          11.1153    3.7862    1.2647 H       1  UNL1        0.0654
     48 H          12.4017    8.0424   -1.4636 H       1  UNL1        0.0329
     49 H          13.2917    7.6227   -0.0344 H       1  UNL1        0.0329
     50 H          12.1849    9.4064    1.3048 H       1  UNL1        0.0515
     51 H          13.5871   11.9792   -1.4005 H       1  UNL1        0.1583
     52 H           3.0440   -3.1712   -0.0012 H       1  UNL1        0.2922
     53 H           6.4320   -2.5850    0.1214 H       1  UNL1        0.0279
     54 H           5.1224   -3.2529   -0.8494 H       1  UNL1        0.0279
     55 H           5.0086   -3.1904    0.9351 H       1  UNL1        0.0279
     56 H           1.5544    2.5352   -0.1840 H       1  UNL1        0.0279
     57 H           2.9597    3.0759   -1.0785 H       1  UNL1        0.0279
     58 H           2.9424    3.1280    0.7061 H       1  UNL1        0.0279
@<TRIPOS>BOND
     1     1     2    1
     2     2     3   ar
     3     3     4   ar
     4     4     5   ar
     5     5     6    1
     6     6     7    1
     7     7     8    1
     8     8     9    1
     9     4     9    1
    10     8    10    1
    11     8    11    1
    12    11    12    1
    13    12    13    1
    14    13    14   ar
    15    14    15   ar
    16    15    16   ar
    17    16    17   ar
    18    17    18   ar
    19    13    18   ar
    20    16    19    1
    21    19    20    1
    22    20    21    1
    23    21    22    2
    24    21    23   am
    25    23    24   am
    26    24    25    2
    27    24    26    1
    28    20    26    1
    29     5    27   ar
    30    27    28   ar
    31     2    28   ar
    32    28    29    1
    33    27    30    1
    34     3    31    1
    35     1    32    1
    36     1    33    1
    37     1    34    1
    38     6    35    1
    39     6    36    1
    40     7    37    1
    41     7    38    1
    42    10    39    1
    43    10    40    1
    44    10    41    1
    45    11    42    1
    46    11    43    1
    47    14    44    1
    48    15    45    1
    49    17    46    1
    50    18    47    1
    51    19    48    1
    52    19    49    1
    53    20    50    1
    54    23    51    1
    55    29    52    1
    56    30    53    1
    57    30    54    1
    58    30    55    1
    59    31    56    1
    60    31    57    1
    61    31    58    1
