@<TRIPOS>MOLECULE
*****
 58 61 0 0 0
SMALL
GASTEIGER

@<TRIPOS>ATOM
      1 C           1.0570   -0.0728   -0.0928 C.3     1  UNL1       -0.0359
      2 C           2.5643   -0.0021   -0.0982 C.ar    1  UNL1       -0.0024
      3 C           3.2990    1.2018   -0.1295 C.ar    1  UNL1       -0.0021
      4 C           4.7129    1.1400   -0.1137 C.ar    1  UNL1        0.1282
      5 C           5.4005   -0.0918   -0.1237 C.ar    1  UNL1        0.0011
      6 C           6.9070   -0.1135   -0.1698 C.3     1  UNL1       -0.0201
      7 C           7.4880    1.2552   -0.4580 C.3     1  UNL1       -0.0058
      8 C           6.7463    2.3269    0.3457 C.3     1  UNL1        0.1418
      9 O           5.3689    2.3574   -0.0784 O.3     1  UNL1       -0.4820
     10 C           6.8173    2.1112    1.8719 C.3     1  UNL1       -0.0217
     11 C           7.3782    3.7067    0.0303 C.3     1  UNL1        0.1288
     12 O           8.7389    3.6941    0.4784 O.3     1  UNL1       -0.4880
     13 C           9.4934    4.8136    0.3021 C.ar    1  UNL1        0.1207
     14 C           9.0810    5.9863   -0.3156 C.ar    1  UNL1       -0.0197
     15 C           9.9853    7.0400   -0.4945 C.ar    1  UNL1       -0.0551
     16 C          11.3066    6.9572   -0.0342 C.ar    1  UNL1       -0.0456
     17 C          11.7002    5.7810    0.6193 C.ar    1  UNL1       -0.0551
     18 C          10.8027    4.7196    0.7769 C.ar    1  UNL1       -0.0197
     19 C          12.3360    8.0165   -0.3698 C.3     1  UNL1       -0.0069
     20 C          12.1814    9.4357    0.2012 C.3     1  UNL1        0.0945
     21 C          13.3502   10.2746   -0.2988 C.2     1  UNL1        0.2336
     22 O          14.5304    9.9672   -0.1922 O.2     1  UNL1       -0.2741
     23 N          12.9453   11.4076   -0.9437 N.am    1  UNL1       -0.2463
     24 C          11.6287   11.5453   -1.2232 C.2     1  UNL1        0.2789
     25 O          11.1534   12.3558   -2.0018 O.2     1  UNL1       -0.2625
     26 S          10.7059   10.3624   -0.3555 S.3     1  UNL1       -0.0542
     27 C           4.6707   -1.2971   -0.0510 C.ar    1  UNL1       -0.0021
     28 C           3.2661   -1.2260   -0.0495 C.ar    1  UNL1        0.1234
     29 O           2.4980   -2.3650    0.0043 O.3     1  UNL1       -0.5062
     30 C           5.3630   -2.6339    0.0393 C.3     1  UNL1       -0.0359
     31 C           2.6586    2.5670   -0.1707 C.3     1  UNL1       -0.0359
     32 H           0.5568    0.8922   -0.1497 H       1  UNL1        0.0279
     33 H           0.7116   -0.5550    0.8289 H       1  UNL1        0.0279
     34 H           0.7088   -0.6566   -0.9524 H       1  UNL1        0.0279
     35 H           7.2520   -0.7981   -0.9533 H       1  UNL1        0.0316
     36 H           7.2877   -0.4755    0.7926 H       1  UNL1        0.0316
     37 H           7.3651    1.4636   -1.5308 H       1  UNL1        0.0308
     38 H           8.5640    1.2477   -0.2532 H       1  UNL1        0.0308
     39 H           6.2553    1.2328    2.2025 H       1  UNL1        0.0269
     40 H           6.3687    2.9631    2.3965 H       1  UNL1        0.0269
     41 H           7.8505    1.9996    2.2161 H       1  UNL1        0.0269
     42 H           6.8166    4.4968    0.5456 H       1  UNL1        0.0737
     43 H           7.3255    3.9005   -1.0493 H       1  UNL1        0.0737
     44 H           8.0742    6.1068   -0.7011 H       1  UNL1        0.0654
     45 H           9.6350    7.9080   -1.0443 H       1  UNL1        0.0621
     46 H          12.7208    5.6537    0.9752 H       1  UNL1        0.0621
     47 H          11.1367    3.7995    1.2514 H       1  UNL1        0.0654
     48 H          12.4292    8.0533   -1.4638 H       1  UNL1        0.0329
     49 H          13.3125    7.6418   -0.0280 H       1  UNL1        0.0329
     50 H          12.1955    9.4325    1.2954 H       1  UNL1        0.0515
     51 H          13.6173   12.0011   -1.4038 H       1  UNL1        0.1583
     52 H           3.0622   -3.1508   -0.0247 H       1  UNL1        0.2922
     53 H           6.4498   -2.5630    0.1206 H       1  UNL1        0.0279
     54 H           5.1410   -3.2327   -0.8496 H       1  UNL1        0.0279
     55 H           5.0263   -3.1676    0.9348 H       1  UNL1        0.0279
     56 H           1.5696    2.5547   -0.1807 H       1  UNL1        0.0279
     57 H           2.9734    3.0965   -1.0768 H       1  UNL1        0.0279
     58 H           2.9581    3.1485    0.7079 H       1  UNL1        0.0279
@<TRIPOS>BOND
     1     1     2    1
     2     2     3   ar
     3     3     4   ar
     4     4     5   ar
     5     5     6    1
     6     6     7    1
     7     7     8    1
     8     8     9    1
     9     4     9    1
    10     8    10    1
    11     8    11    1
    12    11    12    1
    13    12    13    1
    14    13    14   ar
    15    14    15   ar
    16    15    16   ar
    17    16    17   ar
    18    17    18   ar
    19    13    18   ar
    20    16    19    1
    21    19    20    1
    22    20    21    1
    23    21    22    2
    24    21    23   am
    25    23    24   am
    26    24    25    2
    27    24    26    1
    28    20    26    1
    29     5    27   ar
    30    27    28   ar
    31     2    28   ar
    32    28    29    1
    33    27    30    1
    34     3    31    1
    35     1    32    1
    36     1    33    1
    37     1    34    1
    38     6    35    1
    39     6    36    1
    40     7    37    1
    41     7    38    1
    42    10    39    1
    43    10    40    1
    44    10    41    1
    45    11    42    1
    46    11    43    1
    47    14    44    1
    48    15    45    1
    49    17    46    1
    50    18    47    1
    51    19    48    1
    52    19    49    1
    53    20    50    1
    54    23    51    1
    55    29    52    1
    56    30    53    1
    57    30    54    1
    58    30    55    1
    59    31    56    1
    60    31    57    1
    61    31    58    1
