@<TRIPOS>MOLECULE
*****
 45 49 0 0 0
SMALL
GASTEIGER

@<TRIPOS>ATOM
      1 C           1.7144   -0.9615   -1.1635 C.3     1  UNL1        0.0182
      2 C           1.9150    0.0445   -2.2594 C.3     1  UNL1       -0.0041
      3 C           1.4900    1.3784   -1.7318 C.3     1  UNL1       -0.0041
      4 C           0.7743    0.7766   -2.9093 C.3     1  UNL1        0.0141
      5 N           0.9734    1.3525   -4.2390 N.3     1  UNL1       -0.3266
      6 C           1.0128    1.1731   -0.3229 C.3     1  UNL1        0.0182
      7 N           1.5609   -0.1391    0.0586 N.pl3   1  UNL1       -0.3122
      8 C           2.6800   -0.1367    0.9107 C.ar    1  UNL1        0.1592
      9 C           3.2414   -1.3413    1.3513 C.ar    1  UNL1        0.1639
     10 C           4.3550   -1.3360    2.1700 C.ar    1  UNL1       -0.0087
     11 C           4.9040   -0.1129    2.5458 C.ar    1  UNL1        0.0681
     12 C           6.1054   -0.1126    3.3952 C.ar    1  UNL1        0.2050
     13 O           6.5942   -1.1585    3.8122 O.2     1  UNL1       -0.2862
     14 C           6.7351    1.1718    3.7113 C.ar    1  UNL1        0.1225
     15 C           6.1251    2.2719    3.2428 C.ar    1  UNL1        0.0295
     16 N           4.9404    2.3500    2.4997 N.ar    1  UNL1       -0.2971
     17 C           4.3283    1.0879    2.1122 C.ar    1  UNL1        0.1512
     18 N           3.2116    1.0453    1.3306 N.ar    1  UNL1       -0.2109
     19 C           4.4256    3.6519    2.1202 C.ar    1  UNL1        0.0833
     20 C           4.6272    4.8142    2.9065 C.ar    1  UNL1        0.1498
     21 C           4.1728    6.0761    2.5186 C.ar    1  UNL1        0.0109
     22 C           3.4558    6.2031    1.3437 C.ar    1  UNL1        0.1263
     23 C           3.2087    5.0971    0.5472 C.ar    1  UNL1       -0.0243
     24 C           3.7092    3.8433    0.9224 C.ar    1  UNL1       -0.0323
     25 F           2.9990    7.4043    0.9689 F       1  UNL1       -0.2054
     26 F           5.2512    4.7452    4.0930 F       1  UNL1       -0.2032
     27 C           7.9948    1.3012    4.4750 C.2     1  UNL1        0.3420
     28 O           8.5326    2.3739    4.7093 O.2     1  UNL1       -0.2449
     29 O           8.5202    0.1304    4.8960 O.3     1  UNL1       -0.4770
     30 F           2.7260   -2.5267    0.9898 F       1  UNL1       -0.2019
     31 H           2.5510   -1.6665   -1.1467 H       1  UNL1        0.0467
     32 H           0.7936   -1.5329   -1.3287 H       1  UNL1        0.0467
     33 H           2.8656   -0.0443   -2.7636 H       1  UNL1        0.0335
     34 H           2.1627    2.2135   -1.8512 H       1  UNL1        0.0335
     35 H          -0.2269    0.3850   -2.7423 H       1  UNL1        0.0465
     36 H           1.9466    1.6116   -4.3985 H       1  UNL1        0.1185
     37 H           0.4333    2.2101   -4.3502 H       1  UNL1        0.1185
     38 H          -0.0820    1.1086   -0.3099 H       1  UNL1        0.0467
     39 H           1.2829    2.0039    0.3360 H       1  UNL1        0.0467
     40 H           4.7854   -2.2802    2.4915 H       1  UNL1        0.0655
     41 H           6.6075    3.2304    3.4232 H       1  UNL1        0.0823
     42 H           4.3713    6.9440    3.1372 H       1  UNL1        0.0676
     43 H           2.6381    5.2109   -0.3694 H       1  UNL1        0.0647
     44 H           3.5399    3.0220    0.2347 H       1  UNL1        0.0640
     45 H           7.9924   -0.6688    4.6493 H       1  UNL1        0.2954
@<TRIPOS>BOND
     1     1     2    1
     2     2     3    1
     3     3     4    1
     4     2     4    1
     5     4     5    1
     6     3     6    1
     7     6     7    1
     8     1     7    1
     9     7     8    1
    10     8     9   ar
    11     9    10   ar
    12    10    11   ar
    13    11    12   ar
    14    12    13    2
    15    12    14   ar
    16    14    15   ar
    17    15    16   ar
    18    16    17   ar
    19    11    17   ar
    20    17    18   ar
    21     8    18   ar
    22    16    19    1
    23    19    20   ar
    24    20    21   ar
    25    21    22   ar
    26    22    23   ar
    27    23    24   ar
    28    19    24   ar
    29    22    25    1
    30    20    26    1
    31    14    27    1
    32    27    28    2
    33    27    29    1
    34     9    30    1
    35     1    31    1
    36     1    32    1
    37     2    33    1
    38     3    34    1
    39     4    35    1
    40     5    36    1
    41     5    37    1
    42     6    38    1
    43     6    39    1
    44    10    40    1
    45    15    41    1
    46    21    42    1
    47    23    43    1
    48    24    44    1
    49    29    45    1
