@<TRIPOS>MOLECULE
trovafloxacin
46 50 1
SMALL
GASTEIGER

@<TRIPOS>DICT

@<TRIPOS>ATOM
      1 C           2.3313    1.1152    0.0258 C.3       1 <1>         0.0000
      2 H           1.6941    1.3242    0.8743 H         1 <1>         0.0000
      3 H           2.0454    1.6311   -0.8807 H         1 <1>         0.0000
      4 C           3.7672    1.4837    0.4070 C.3       1 <1>         0.0000
      5 H           3.9147    2.2957    1.1071 H         1 <1>         0.0000
      6 C           4.5586    0.2266    0.5252 C.3       1 <1>         0.0000
      7 H           5.2939    0.1063    1.3096 H         1 <1>         0.0000
      8 C           4.8307    1.1743   -0.6088 C.3       1 <1>         0.0000
      9 H           4.5345    0.9032   -1.6129 H         1 <1>         0.0000
     10 N           6.0539    1.9509   -0.4853 N.4       1 <1>         1.0000
     11 H           6.8145    1.4468   -0.9524 H         1 <1>         0.0000
     12 H           5.9280    2.8437   -0.9721 H         1 <1>         0.0000
     13 C           3.6562   -0.9633    0.1937 C.3       1 <1>         0.0000
     14 H           3.5024   -1.5493    1.0895 H         1 <1>         0.0000
     15 H           4.0888   -1.5114   -0.6315 H         1 <1>         0.0000
     16 N           2.3754   -0.3493   -0.2151 N.pl3     1 <1>         0.0000
     17 C           1.1753   -1.0994   -0.2786 C.ar      1 <1>         0.0000
     18 C           1.1445   -2.5009   -0.4886 C.ar      1 <1>         0.0000
     19 C          -0.0391   -3.2075   -0.4801 C.ar      1 <1>         0.0000
     20 H          -0.0405   -4.2575   -0.6293 H         1 <1>         0.0000
     21 C          -1.2377   -2.5041   -0.2700 C.ar      1 <1>         0.0000
     22 C          -2.5289   -3.1543   -0.2074 C.2       1 <1>         0.0000
     23 O          -2.6049   -4.3763   -0.3665 O.2       1 <1>         0.0000
     24 C          -3.7054   -2.3433    0.0422 C.2       1 <1>         0.0000
     25 C          -3.5551   -0.9805    0.1728 C.2       1 <1>         0.0000
     26 H          -4.3583   -0.3099    0.3521 H         1 <1>         0.0000
     27 N          -2.3309   -0.3599    0.0766 N.pl3     1 <1>         0.0000
     28 C          -1.1434   -1.1075   -0.1127 C.ar      1 <1>         0.0000
     29 N           0.0238   -0.4299   -0.1219 N.ar      1 <1>         0.0000
     30 C          -2.2970    1.0652    0.1730 C.ar      1 <1>         0.0000
     31 C          -2.6524    1.8538   -0.9246 C.ar      1 <1>         0.0000
     32 C          -2.6421    3.2406   -0.8473 C.ar      1 <1>         0.0000
     33 H          -2.9129    3.8408   -1.6763 H         1 <1>         0.0000
     34 C          -2.2623    3.8145    0.3634 C.ar      1 <1>         0.0000
     35 C          -1.8965    3.0513    1.4725 C.ar      1 <1>         0.0000
     36 H          -1.6104    3.5231    2.3769 H         1 <1>         0.0000
     37 C          -1.9127    1.6607    1.3784 C.ar      1 <1>         0.0000
     38 H          -1.6377    1.0634    2.2078 H         1 <1>         0.0000
     39 F          -2.2472    5.1626    0.4674 F         1 <1>         0.0000
     40 F          -3.0151    1.2689   -2.0915 F         1 <1>         0.0000
     41 C          -5.0352   -2.9387    0.1534 C.2       1 <1>         0.0000
     42 O          -5.2886   -4.1336    0.1062 O.2       1 <1>         0.0000
     43 O          -6.1048   -2.1316    0.3237 O.3       1 <1>         0.0000
     44 H          -6.9423   -2.6361    0.3796 H         1 <1>         0.0000
     45 F           2.2684   -3.2021   -0.7247 F         1 <1>         0.0000
     46 H           6.2209    2.0718    0.5748 H         1 <1>         0.0000
@<TRIPOS>BOND
     1    1    3 1
     2    1    4 1
     3    1   16 1
     4    1    2 1
     5    4    8 1
     6    4    5 1
     7    4    6 1
     8    6    8 1
     9    6   13 1
    10    6    7 1
    11    8    9 1
    12    8   10 1
    13   10   11 1
    14   10   12 1
    15   13   15 1
    16   13   16 1
    17   13   14 1
    18   16   17 1
    19   17   18 ar
    20   17   29 ar
    21   18   45 1
    22   18   19 ar
    23   19   20 1
    24   19   21 ar
    25   21   22 1
    26   21   28 ar
    27   22   23 2
    28   22   24 1
    29   24   25 2
    30   24   41 1
    31   25   26 1
    32   25   27 1
    33   27   28 1
    34   27   30 1
    35   28   29 ar
    36   30   31 ar
    37   30   37 ar
    38   31   40 1
    39   31   32 ar
    40   32   33 1
    41   32   34 ar
    42   34   35 ar
    43   34   39 1
    44   35   37 ar
    45   35   36 1
    46   37   38 1
    47   41   42 2
    48   41   43 1
    49   43   44 1
    50   10   46 1
@<TRIPOS>SUBSTRUCTURE
1 <1> 1
@<TRIPOS>COMMENT
0.0000



