@<TRIPOS>MOLECULE
valproic_acid
26 25 1
SMALL
GASTEIGER

@<TRIPOS>DICT

@<TRIPOS>ATOM
      1 C           3.7199   -0.1799    0.1187 C.3       1 UNL1        0.0000
      2 H           4.2987   -0.9875    0.5672 H         1 UNL1        0.0000
      3 H           4.0576    0.7717    0.5319 H         1 UNL1        0.0000
      4 H           3.8792   -0.1843   -0.9600 H         1 UNL1        0.0000
      5 C           2.2337   -0.3833    0.4297 C.3       1 UNL1        0.0000
      6 H           2.1036   -0.3749    1.5131 H         1 UNL1        0.0000
      7 H           1.9276   -1.3559    0.0443 H         1 UNL1        0.0000
      8 C           1.3735    0.7291   -0.1972 C.3       1 UNL1        0.0000
      9 H           1.4411    0.6725   -1.2847 H         1 UNL1        0.0000
     10 H           1.7845    1.6896    0.1180 H         1 UNL1        0.0000
     11 C          -0.1085    0.6785    0.2307 C.3       1 UNL1        0.0000
     12 H          -0.1308    0.5621    1.3160 H         1 UNL1        0.0000
     13 C          -0.8438   -0.5261   -0.3888 C.3       1 UNL1        0.0000
     14 H          -0.3162   -1.4449   -0.1294 H         1 UNL1        0.0000
     15 H          -0.8543   -0.4297   -1.4763 H         1 UNL1        0.0000
     16 C          -2.2876   -0.6377    0.1255 C.3       1 UNL1        0.0000
     17 H          -2.8803    0.2086   -0.2312 H         1 UNL1        0.0000
     18 H          -2.2867   -0.6376    1.2178 H         1 UNL1        0.0000
     19 C          -2.9356   -1.9362   -0.3639 C.3       1 UNL1        0.0000
     20 H          -2.9681   -1.9453   -1.4543 H         1 UNL1        0.0000
     21 H          -3.9530   -2.0027    0.0263 H         1 UNL1        0.0000
     22 H          -2.3628   -2.7955   -0.0077 H         1 UNL1        0.0000
     23 C          -0.8112    1.9964   -0.1288 C.2       1 UNL1        0.0000
     24 O          -0.8628    2.4531   -1.2715 O.2       1 UNL1        0.0000
     25 O          -1.3841    2.6219    0.9445 O.3       1 UNL1        0.0000
     26 H          -1.8336    3.4380    0.7101 H         1 UNL1        0.0000
@<TRIPOS>BOND
     1    1    3 1
     2    1    4 1
     3    1    2 1
     4    1    5 1
     5    5    7 1
     6    5    6 1
     7    5    8 1
     8    8    9 1
     9    8   10 1
    10    8   11 1
    11   11   13 1
    12   11   23 1
    13   11   12 1
    14   13   14 1
    15   13   15 1
    16   13   16 1
    17   16   19 1
    18   16   17 1
    19   16   18 1
    20   19   20 1
    21   19   21 1
    22   19   22 1
    23   23   24 2
    24   23   25 1
    25   25   26 1
@<TRIPOS>SUBSTRUCTURE
1 UNL1 1
@<TRIPOS>COMMENT
0.0000



