@<TRIPOS>MOLECULE
*****
 26 25 0 0 0
SMALL
GASTEIGER

@<TRIPOS>ATOM
      1 C           0.6874    0.1064   -0.2486 C.3     1  UNL1       -0.0653
      2 C           2.1995   -0.0057   -0.1039 C.3     1  UNL1       -0.0552
      3 C           2.8662   -0.2289   -1.4636 C.3     1  UNL1       -0.0404
      4 C           4.4087   -0.3044   -1.4197 C.3     1  UNL1        0.0563
      5 C           4.9596   -1.4138   -0.5004 C.3     1  UNL1       -0.0404
      6 C           4.5874   -2.8351   -0.9300 C.3     1  UNL1       -0.0552
      7 C           5.2134   -3.8732   -0.0108 C.3     1  UNL1       -0.0653
      8 C           4.9489   -0.4374   -2.8418 C.2     1  UNL1        0.3078
      9 O           4.2583   -0.5698   -3.8409 O.2     1  UNL1       -0.2507
     10 O           6.2972   -0.3676   -2.9212 O.3     1  UNL1       -0.4804
     11 H           0.2188    0.2342    0.7323 H       1  UNL1        0.0230
     12 H           0.2717   -0.7964   -0.7074 H       1  UNL1        0.0230
     13 H           0.4141    0.9648   -0.8707 H       1  UNL1        0.0230
     14 H           2.4196   -0.8360    0.5742 H       1  UNL1        0.0263
     15 H           2.5871    0.9089    0.3577 H       1  UNL1        0.0263
     16 H           2.5781    0.5969   -2.1274 H       1  UNL1        0.0273
     17 H           2.4575   -1.1369   -1.9220 H       1  UNL1        0.0273
     18 H           4.7692    0.6636   -1.0434 H       1  UNL1        0.0413
     19 H           4.6171   -1.2443    0.5272 H       1  UNL1        0.0273
     20 H           6.0536   -1.3397   -0.4512 H       1  UNL1        0.0273
     21 H           4.9317   -3.0222   -1.9536 H       1  UNL1        0.0263
     22 H           3.5002   -2.9656   -0.9212 H       1  UNL1        0.0263
     23 H           6.3044   -3.7899   -0.0106 H       1  UNL1        0.0230
     24 H           4.9513   -4.8820   -0.3452 H       1  UNL1        0.0230
     25 H           4.8571   -3.7518    1.0174 H       1  UNL1        0.0230
     26 H           6.7479   -0.2328   -2.0683 H       1  UNL1        0.2951
@<TRIPOS>BOND
     1     1     2    1
     2     2     3    1
     3     3     4    1
     4     4     5    1
     5     5     6    1
     6     6     7    1
     7     4     8    1
     8     8     9    2
     9     8    10    1
    10     1    11    1
    11     1    12    1
    12     1    13    1
    13     2    14    1
    14     2    15    1
    15     3    16    1
    16     3    17    1
    17     4    18    1
    18     5    19    1
    19     5    20    1
    20     6    21    1
    21     6    22    1
    22     7    23    1
    23     7    24    1
    24     7    25    1
    25    10    26    1
