@<TRIPOS>MOLECULE
*****
 69 71 0 0 0
SMALL
GASTEIGER

@<TRIPOS>ATOM
      1 C           3.3489   -2.1905    0.8882 C.3     1  UNL1       -0.0306
      2 C           2.7234   -2.5267   -0.4525 C.3     1  UNL1        0.0897
      3 O           3.2510   -1.6676   -1.4725 O.3     1  UNL1       -0.4640
      4 C           4.4566   -2.0298   -2.0009 C.2     1  UNL1        0.3211
      5 O           5.0728   -3.0525   -1.7260 O.2     1  UNL1       -0.2494
      6 C           4.8824   -1.0097   -3.0519 C.3     1  UNL1        0.0950
      7 N           6.3506   -0.8334   -3.0606 N.3     1  UNL1       -0.2959
      8 C           6.7970   -0.0784   -4.2686 C.3     1  UNL1        0.0882
      9 C           6.4389    1.4485   -4.2133 C.3     1  UNL1       -0.0171
     10 C           6.8916    2.1753   -2.9368 C.3     1  UNL1       -0.0483
     11 C           8.3772    2.5142   -2.9392 C.3     1  UNL1       -0.0527
     12 C           8.7868    3.3422   -4.1533 C.3     1  UNL1       -0.0530
     13 C           8.2802    2.7853   -5.4736 C.3     1  UNL1       -0.0527
     14 C           6.8261    2.3356   -5.4183 C.3     1  UNL1       -0.0483
     15 C           8.2824   -0.4269   -4.5839 C.2     1  UNL1        0.2335
     16 O           9.1088   -0.7210   -3.7261 O.2     1  UNL1       -0.2739
     17 N           8.6171   -0.3717   -5.9286 N.am    1  UNL1       -0.2885
     18 C           9.9799   -0.5561   -6.4484 C.3     1  UNL1        0.0176
     19 C           9.2936   -0.7857   -7.8010 C.3     1  UNL1       -0.0099
     20 C           8.0585   -1.2436   -6.9960 C.3     1  UNL1        0.1036
     21 C           6.6448   -0.9010   -7.5751 C.2     1  UNL1        0.2339
     22 O           5.8547   -0.0553   -7.1563 O.2     1  UNL1       -0.2738
     23 N           6.2754   -1.6978   -8.6281 N.am    1  UNL1       -0.3097
     24 C           4.9061   -1.7241   -9.1011 C.3     1  UNL1        0.0369
     25 C           4.3351   -3.1207   -9.0922 C.ar    1  UNL1       -0.0303
     26 C           2.9753   -3.3115   -8.8038 C.ar    1  UNL1       -0.0563
     27 C           2.4165   -4.5947   -8.8033 C.ar    1  UNL1       -0.0464
     28 C           3.2030   -5.7061   -9.1160 C.ar    1  UNL1        0.0693
     29 C           4.5576   -5.5185   -9.4139 C.ar    1  UNL1       -0.0464
     30 C           5.1151   -4.2406   -9.4100 C.ar    1  UNL1       -0.0563
     31 C           2.6787   -7.1101   -9.0811 C.2     1  UNL1        0.3624
     32 N           1.4793   -7.5132   -9.4084 N.2     1  UNL1        0.1514
     33 O           0.6586   -6.5070   -9.9140 O.2     1  UNL1       -0.3111
     34 N           3.5396   -8.0973   -8.6577 N.pl3   1  UNL1       -0.2430
     35 H           2.8724   -2.7565    1.6930 H       1  UNL1        0.0262
     36 H           3.2542   -1.1203    1.1004 H       1  UNL1        0.0262
     37 H           4.4191   -2.4210    0.8882 H       1  UNL1        0.0262
     38 H           1.6447   -2.3442   -0.4100 H       1  UNL1        0.0694
     39 H           2.8627   -3.5820   -0.7125 H       1  UNL1        0.0694
     40 H           4.4043   -0.0527   -2.8224 H       1  UNL1        0.0540
     41 H           4.5090   -1.3807   -4.0137 H       1  UNL1        0.0540
     42 H           6.7890   -1.7600   -3.0649 H       1  UNL1        0.1232
     43 H           6.2310   -0.5309   -5.0746 H       1  UNL1        0.0559
     44 H           5.3391    1.4737   -4.1999 H       1  UNL1        0.0321
     45 H           6.6326    1.6037   -2.0397 H       1  UNL1        0.0269
     46 H           6.3276    3.1162   -2.8630 H       1  UNL1        0.0269
     47 H           8.9718    1.5995   -2.8958 H       1  UNL1        0.0265
     48 H           8.6196    3.0756   -2.0302 H       1  UNL1        0.0265
     49 H           9.8800    3.4173   -4.1920 H       1  UNL1        0.0265
     50 H           8.4052    4.3628   -4.0362 H       1  UNL1        0.0265
     51 H           8.9295    1.9711   -5.7862 H       1  UNL1        0.0265
     52 H           8.3897    3.5452   -6.2578 H       1  UNL1        0.0265
     53 H           6.5497    1.8859   -6.3690 H       1  UNL1        0.0269
     54 H           6.2128    3.2471   -5.3600 H       1  UNL1        0.0269
     55 H          10.5013   -1.4211   -6.0287 H       1  UNL1        0.0465
     56 H          10.6058    0.3353   -6.3913 H       1  UNL1        0.0465
     57 H           9.7502   -1.5422   -8.4428 H       1  UNL1        0.0303
     58 H           9.1328    0.1307   -8.3847 H       1  UNL1        0.0303
     59 H           8.1202   -2.2968   -6.6807 H       1  UNL1        0.0597
     60 H           6.9598   -2.3054   -9.0519 H       1  UNL1        0.1491
     61 H           4.8949   -1.3159  -10.1149 H       1  UNL1        0.0512
     62 H           4.2809   -1.0805   -8.4700 H       1  UNL1        0.0512
     63 H           2.3365   -2.4612   -8.5675 H       1  UNL1        0.0621
     64 H           1.3671   -4.7103   -8.5469 H       1  UNL1        0.0626
     65 H           5.1906   -6.3660   -9.6647 H       1  UNL1        0.0626
     66 H           6.1674   -4.1448   -9.6581 H       1  UNL1        0.0621
     67 H          -0.1584   -6.9960  -10.1231 H       1  UNL1        0.3605
     68 H           4.1772   -7.8342   -7.9155 H       1  UNL1        0.2886
     69 H           3.0459   -8.9622   -8.4637 H       1  UNL1        0.2886
@<TRIPOS>BOND
     1     1     2    1
     2     2     3    1
     3     3     4    1
     4     4     5    2
     5     4     6    1
     6     6     7    1
     7     7     8    1
     8     8     9    1
     9     9    10    1
    10    10    11    1
    11    11    12    1
    12    12    13    1
    13    13    14    1
    14     9    14    1
    15     8    15    1
    16    15    16    2
    17    15    17   am
    18    17    18    1
    19    18    19    1
    20    19    20    1
    21    17    20    1
    22    20    21    1
    23    21    22    2
    24    21    23   am
    25    23    24    1
    26    24    25    1
    27    25    26   ar
    28    26    27   ar
    29    27    28   ar
    30    28    29   ar
    31    29    30   ar
    32    25    30   ar
    33    28    31    1
    34    31    32    2
    35    32    33    1
    36    31    34    1
    37     1    35    1
    38     1    36    1
    39     1    37    1
    40     2    38    1
    41     2    39    1
    42     6    40    1
    43     6    41    1
    44     7    42    1
    45     8    43    1
    46     9    44    1
    47    10    45    1
    48    10    46    1
    49    11    47    1
    50    11    48    1
    51    12    49    1
    52    12    50    1
    53    13    51    1
    54    13    52    1
    55    14    53    1
    56    14    54    1
    57    18    55    1
    58    18    56    1
    59    19    57    1
    60    19    58    1
    61    20    59    1
    62    23    60    1
    63    24    61    1
    64    24    62    1
    65    26    63    1
    66    27    64    1
    67    29    65    1
    68    30    66    1
    69    33    67    1
    70    34    68    1
    71    34    69    1
